* CDL Netlist generated by OpenROAD

*.BUSDELIMITER [

.SUBCKT tf_lms_sv adapt_en clock dxin[0] dxin[1] dxin[2] dxin[3]
+ dxin[4] dxin[5] dxin[6] dxin[7] err[0] err[1] err[2] err[3]
+ err[4] err[5] err[6] err[7] reset xin[0] xin[1] xin[2] xin[3]
+ xin[4] xin[5] xin[6] xin[7] yout[0] yout[1] yout[2] yout[3]
+ yout[4] yout[5] yout[6] yout[7] VSS VDD
Xclkbuf_leaf_101_clock clknet_4_12_0_clock clknet_leaf_101_clock
+ VDD VSS CLKBUF_X3
Xclkbuf_leaf_100_clock clknet_4_9_0_clock clknet_leaf_100_clock
+ VDD VSS CLKBUF_X3
X_5552_ cflt.tap4.shiftue\[5\] cflt.tap4.shiftxn\[0\] _2425_
+ VDD VSS NAND2_X1
X_5553_ _2425_ _1455_ VDD VSS INV_X1
Xclkbuf_leaf_99_clock clknet_4_9_0_clock clknet_leaf_99_clock
+ VDD VSS CLKBUF_X3
Xclkbuf_leaf_98_clock clknet_4_9_0_clock clknet_leaf_98_clock
+ VDD VSS CLKBUF_X3
X_5556_ cflt.tap4.shiftue\[4\] cflt.tap4.shiftxn\[1\] _2428_
+ VDD VSS NAND2_X1
X_5557_ _2428_ _0024_ VDD VSS INV_X1
Xclkbuf_leaf_97_clock clknet_4_9_0_clock clknet_leaf_97_clock
+ VDD VSS CLKBUF_X3
Xclkbuf_leaf_96_clock clknet_4_8_0_clock clknet_leaf_96_clock
+ VDD VSS CLKBUF_X3
X_5560_ cflt.tap4.shiftue\[3\] cflt.tap4.shiftxn\[2\] _2431_
+ VDD VSS NAND2_X1
X_5561_ _2431_ _0023_ VDD VSS INV_X1
Xclkbuf_leaf_95_clock clknet_4_8_0_clock clknet_leaf_95_clock
+ VDD VSS CLKBUF_X3
Xclkbuf_leaf_94_clock clknet_4_8_0_clock clknet_leaf_94_clock
+ VDD VSS CLKBUF_X3
X_5564_ cflt.tap4.shiftue\[2\] cflt.tap4.shiftxn\[3\] _2434_
+ VDD VSS NAND2_X1
X_5565_ _2434_ _0022_ VDD VSS INV_X1
X_5566_ cflt.tap4.shiftxn\[0\] cflt.tap4.shiftue\[4\] _0033_
+ VDD VSS NAND2_X1
Xclkbuf_leaf_93_clock clknet_4_8_0_clock clknet_leaf_93_clock
+ VDD VSS CLKBUF_X3
Xclkbuf_leaf_92_clock clknet_4_8_0_clock clknet_leaf_92_clock
+ VDD VSS CLKBUF_X3
X_5569_ cflt.tap4.shiftue\[1\] cflt.tap4.shiftxn\[4\] _2437_
+ VDD VSS NAND2_X1
X_5570_ _2437_ _1457_ VDD VSS INV_X1
Xclkbuf_leaf_91_clock clknet_4_8_0_clock clknet_leaf_91_clock
+ VDD VSS CLKBUF_X3
Xclkbuf_leaf_90_clock clknet_4_10_0_clock clknet_leaf_90_clock
+ VDD VSS CLKBUF_X3
X_5573_ cflt.tap4.shiftue\[0\] cflt.tap4.shiftxn\[5\] _2440_
+ VDD VSS NAND2_X1
X_5574_ _2440_ _1456_ VDD VSS INV_X1
X_5575_ cflt.tap4.shiftxn\[3\] cflt.tap4.shiftue\[1\] _2441_
+ VDD VSS NAND2_X1
X_5576_ _2441_ _1459_ VDD VSS INV_X1
X_5577_ cflt.tap4.shiftxn\[4\] cflt.tap4.shiftue\[0\] _2442_
+ VDD VSS NAND2_X1
X_5578_ _2442_ _1458_ VDD VSS INV_X1
X_5579_ cflt.tap4.shiftxn\[1\] cflt.tap4.shiftue\[2\] _2443_
+ VDD VSS NAND2_X1
X_5580_ _2443_ _1470_ VDD VSS INV_X1
X_5581_ cflt.tap4.shiftxn\[0\] cflt.tap4.shiftue\[3\] _2444_
+ VDD VSS NAND2_X1
X_5582_ _2444_ _1469_ VDD VSS INV_X1
X_5583_ cflt.tap4.shiftxn\[2\] cflt.tap4.shiftue\[1\] _2445_
+ VDD VSS NAND2_X1
X_5584_ _2445_ _1467_ VDD VSS INV_X1
X_5585_ cflt.tap4.shiftxn\[3\] cflt.tap4.shiftue\[0\] _2446_
+ VDD VSS NAND2_X1
X_5586_ _2446_ _1466_ VDD VSS INV_X1
X_5587_ cflt.tap4.shiftxn\[1\] cflt.tap4.shiftue\[1\] _2447_
+ VDD VSS NAND2_X1
X_5588_ _2447_ _1476_ VDD VSS INV_X1
X_5589_ cflt.tap4.shiftxn\[2\] cflt.tap4.shiftue\[0\] _2448_
+ VDD VSS NAND2_X1
X_5590_ _2448_ _1475_ VDD VSS INV_X1
X_5591_ _1476_ cflt.tap4.shiftxn\[0\] cflt.tap4.shiftue\[0\]
+ _1477_ VDD VSS AND3_X1
X_5592_ net983 cflt.tap4.shiftue\[2\] _1479_ _1480_ VDD VSS
+ AND3_X1
Xclkbuf_leaf_89_clock clknet_4_10_0_clock clknet_leaf_89_clock
+ VDD VSS CLKBUF_X3
X_5594_ cflt.tap4.shiftxn\[0\] cflt.tap4.shiftue\[6\] _2450_
+ VDD VSS NAND2_X1
X_5595_ _2450_ _1484_ VDD VSS INV_X1
X_5596_ cflt.tap4.shiftue\[5\] cflt.tap4.shiftxn\[1\] _2451_
+ VDD VSS NAND2_X1
X_5597_ _2451_ _1483_ VDD VSS INV_X1
X_5598_ cflt.tap4.shiftue\[4\] cflt.tap4.shiftxn\[2\] _2452_
+ VDD VSS NAND2_X1
X_5599_ _2452_ _0045_ VDD VSS INV_X1
X_5600_ cflt.tap4.shiftue\[3\] cflt.tap4.shiftxn\[3\] _2453_
+ VDD VSS NAND2_X1
X_5601_ _2453_ _0044_ VDD VSS INV_X1
X_5602_ cflt.tap4.shiftue\[2\] cflt.tap4.shiftxn\[4\] _2454_
+ VDD VSS NAND2_X1
X_5603_ _2454_ _0043_ VDD VSS INV_X1
X_5604_ cflt.tap4.shiftue\[1\] cflt.tap4.shiftxn\[5\] _2455_
+ VDD VSS NAND2_X1
X_5605_ _2455_ _1486_ VDD VSS INV_X1
Xclkbuf_leaf_88_clock clknet_4_10_0_clock clknet_leaf_88_clock
+ VDD VSS CLKBUF_X3
X_5607_ cflt.tap4.shiftue\[0\] cflt.tap4.shiftxn\[6\] _2457_
+ VDD VSS NAND2_X1
X_5608_ _2457_ _1485_ VDD VSS INV_X1
X_5609_ cflt.tap4.shiftue\[7\] _2458_ VDD VSS INV_X1
X_5610_ _2458_ cflt.tap4.shiftxn\[0\] _0050_ VDD VSS NOR2_X1
X_5611_ cflt.tap4.shiftxn\[1\] cflt.tap4.shiftue\[6\] _2459_
+ VDD VSS NAND2_X1
X_5612_ _2459_ _0049_ VDD VSS INV_X1
X_5613_ cflt.tap4.shiftue\[5\] cflt.tap4.shiftxn\[2\] _2460_
+ VDD VSS NAND2_X1
X_5614_ _2460_ _0048_ VDD VSS INV_X1
X_5615_ cflt.tap4.shiftue\[4\] cflt.tap4.shiftxn\[3\] _2461_
+ VDD VSS NAND2_X1
X_5616_ _2461_ _0054_ VDD VSS INV_X1
X_5617_ cflt.tap4.shiftue\[3\] cflt.tap4.shiftxn\[4\] _2462_
+ VDD VSS NAND2_X1
X_5618_ _2462_ _0053_ VDD VSS INV_X1
X_5619_ cflt.tap4.shiftue\[2\] cflt.tap4.shiftxn\[5\] _2463_
+ VDD VSS NAND2_X1
X_5620_ _2463_ _0052_ VDD VSS INV_X1
X_5621_ cflt.tap4.shiftue\[1\] cflt.tap4.shiftxn\[6\] _0058_
+ VDD VSS NAND2_X1
Xclkbuf_leaf_87_clock clknet_4_10_0_clock clknet_leaf_87_clock
+ VDD VSS CLKBUF_X3
X_5623_ cflt.tap4.shiftue\[0\] cflt.tap4.shiftxn\[7\] _0057_
+ VDD VSS NAND2_X1
X_5624_ _0057_ _1489_ VDD VSS INV_X1
X_5625_ _2458_ cflt.tap4.shiftxn\[1\] _0071_ VDD VSS NOR2_X1
X_5626_ cflt.tap4.shiftxn\[2\] cflt.tap4.shiftue\[6\] _2465_
+ VDD VSS NAND2_X1
X_5627_ _2465_ _0070_ VDD VSS INV_X1
X_5628_ cflt.tap4.shiftue\[5\] cflt.tap4.shiftxn\[3\] _2466_
+ VDD VSS NAND2_X1
X_5629_ _2466_ _0069_ VDD VSS INV_X1
X_5630_ cflt.tap4.shiftue\[4\] cflt.tap4.shiftxn\[4\] _2467_
+ VDD VSS NAND2_X1
X_5631_ _2467_ _0076_ VDD VSS INV_X1
X_5632_ cflt.tap4.shiftue\[3\] cflt.tap4.shiftxn\[5\] _2468_
+ VDD VSS NAND2_X1
X_5633_ _2468_ _0075_ VDD VSS INV_X1
X_5634_ cflt.tap4.shiftue\[2\] cflt.tap4.shiftxn\[6\] _2469_
+ VDD VSS NAND2_X1
X_5635_ _2469_ _0074_ VDD VSS INV_X1
X_5636_ cflt.tap4.shiftue\[1\] cflt.tap4.shiftxn\[7\] _2470_
+ VDD VSS NAND2_X1
X_5637_ _2470_ _1493_ VDD VSS INV_X1
X_5638_ _2458_ cflt.tap4.shiftxn\[2\] _0090_ VDD VSS NOR2_X1
X_5639_ cflt.tap4.shiftxn\[3\] cflt.tap4.shiftue\[6\] _2471_
+ VDD VSS NAND2_X1
X_5640_ _2471_ _0089_ VDD VSS INV_X1
X_5641_ cflt.tap4.shiftue\[5\] cflt.tap4.shiftxn\[4\] _2472_
+ VDD VSS NAND2_X1
X_5642_ _2472_ _0088_ VDD VSS INV_X1
X_5643_ cflt.tap4.shiftue\[4\] cflt.tap4.shiftxn\[5\] _2473_
+ VDD VSS NAND2_X1
X_5644_ _2473_ _0095_ VDD VSS INV_X1
X_5645_ cflt.tap4.shiftue\[3\] cflt.tap4.shiftxn\[6\] _2474_
+ VDD VSS NAND2_X1
X_5646_ _2474_ _0094_ VDD VSS INV_X1
X_5647_ cflt.tap4.shiftue\[2\] cflt.tap4.shiftxn\[7\] _0112_
+ VDD VSS NAND2_X1
X_5648_ _0112_ _0093_ VDD VSS INV_X1
X_5649_ _2458_ cflt.tap4.shiftxn\[3\] _0108_ VDD VSS NOR2_X1
X_5650_ cflt.tap4.shiftxn\[4\] cflt.tap4.shiftue\[6\] _2475_
+ VDD VSS NAND2_X1
X_5651_ _2475_ _0107_ VDD VSS INV_X1
X_5652_ cflt.tap4.shiftue\[5\] cflt.tap4.shiftxn\[5\] _2476_
+ VDD VSS NAND2_X1
X_5653_ _2476_ _0106_ VDD VSS INV_X1
X_5654_ cflt.tap4.shiftue\[4\] cflt.tap4.shiftxn\[6\] _0111_
+ VDD VSS NAND2_X1
X_5655_ cflt.tap4.shiftue\[3\] cflt.tap4.shiftxn\[7\] _0110_
+ VDD VSS NAND2_X1
X_5656_ _0110_ _0127_ VDD VSS INV_X1
X_5657_ _2458_ cflt.tap4.shiftxn\[4\] _0124_ VDD VSS NOR2_X1
X_5658_ cflt.tap4.shiftxn\[5\] cflt.tap4.shiftue\[6\] _2477_
+ VDD VSS NAND2_X1
X_5659_ _2477_ _0123_ VDD VSS INV_X1
X_5660_ cflt.tap4.shiftue\[5\] cflt.tap4.shiftxn\[6\] _2478_
+ VDD VSS NAND2_X1
X_5661_ _2478_ _0122_ VDD VSS INV_X1
X_5662_ cflt.tap4.shiftue\[4\] cflt.tap4.shiftxn\[7\] _2479_
+ VDD VSS NAND2_X1
X_5663_ _2479_ _0126_ VDD VSS INV_X1
X_5664_ _2458_ cflt.tap4.shiftxn\[5\] _0141_ VDD VSS NOR2_X1
X_5665_ cflt.tap4.shiftue\[6\] cflt.tap4.shiftxn\[6\] _2480_
+ VDD VSS NAND2_X1
X_5666_ _2480_ _0140_ VDD VSS INV_X1
X_5667_ cflt.tap4.shiftue\[5\] cflt.tap4.shiftxn\[7\] _0158_
+ VDD VSS NAND2_X1
X_5668_ _0158_ _0139_ VDD VSS INV_X1
X_5669_ _2458_ cflt.tap4.shiftxn\[6\] _0157_ VDD VSS OR2_X1
X_5670_ cflt.tap4.shiftue\[6\] cflt.tap4.shiftxn\[7\] _0156_
+ VDD VSS NAND2_X1
X_5671_ _0156_ _2458_ cflt.tap4.shiftxn\[7\] _1517_ VDD VSS
+ OAI21_X1
X_5672_ _0128_ _0130_ VDD VSS INV_X1
X_5673_ _0148_ _0151_ VDD VSS INV_X1
X_5674_ _0147_ _0162_ VDD VSS INV_X1
X_5675_ cflt.tap1.delay_2.shift_reg\[9\] cflt.tap1.delay_2.shift_reg\[8\]
+ cflt.tap1.delay_2.shift_reg\[11\] cflt.tap1.delay_2.shift_reg\[10\]
+ _2481_ VDD VSS NOR4_X1
X_5676_ cflt.tap1.delay_2.shift_reg\[0\] cflt.tap1.delay_2.shift_reg\[1\]
+ cflt.tap1.delay_2.shift_reg\[3\] cflt.tap1.delay_2.shift_reg\[2\]
+ _2482_ VDD VSS NOR4_X1
X_5677_ cflt.tap1.delay_2.shift_reg\[5\] cflt.tap1.delay_2.shift_reg\[4\]
+ cflt.tap1.delay_2.shift_reg\[7\] cflt.tap1.delay_2.shift_reg\[6\]
+ _2483_ VDD VSS NOR4_X1
X_5678_ cflt.tap1.delay_2.shift_reg\[15\] cflt.tap1.delay_2.shift_reg\[14\]
+ _2484_ VDD VSS NOR2_X1
X_5679_ cflt.tap1.delay_2.shift_reg\[13\] _2485_ VDD VSS INV_X1
X_5680_ _2484_ cflt.tap1.delay_2.shift_reg\[12\] _2485_ _2486_
+ VDD VSS AND3_X1
X_5681_ _2481_ _2482_ _2483_ _2486_ _2487_ VDD VSS NAND4_X1
X_5682_ cflt.tap1.delay_2.shift_reg\[12\] _2488_ VDD VSS INV_X1
X_5683_ _2484_ _2488_ _2485_ _2489_ VDD VSS NAND3_X1
X_5684_ _2489_ _1522_ _2490_ VDD VSS XNOR2_X1
X_5685_ _2487_ _2490_ _2491_ VDD VSS NAND2_X1
X_5686_ _2491_ _2492_ VDD VSS INV_X1
X_5687_ _2492_ _1525_ _2493_ VDD VSS NOR2_X2
Xclkbuf_leaf_86_clock clknet_4_11_0_clock clknet_leaf_86_clock
+ VDD VSS CLKBUF_X3
X_5689_ _2493_ net3788 _2395_ VDD VSS AND2_X1
X_5690_ cflt.tap2.delay_2.shift_reg\[1\] cflt.tap2.delay_2.shift_reg\[0\]
+ cflt.tap2.delay_2.shift_reg\[3\] cflt.tap2.delay_2.shift_reg\[2\]
+ _2495_ VDD VSS NOR4_X1
X_5691_ cflt.tap2.delay_2.shift_reg\[9\] _2496_ VDD VSS INV_X1
X_5692_ cflt.tap2.delay_2.shift_reg\[8\] _2497_ VDD VSS INV_X1
X_5693_ net958 _2498_ VDD VSS INV_X1
X_5694_ cflt.tap2.delay_2.shift_reg\[10\] _2499_ VDD VSS INV_X1
X_5695_ _2496_ _2497_ _2498_ _2499_ _2500_ VDD VSS NAND4_X1
X_5696_ cflt.tap2.delay_2.shift_reg\[6\] _2501_ VDD VSS INV_X1
X_5697_ cflt.tap2.delay_2.shift_reg\[5\] _2502_ VDD VSS INV_X1
X_5698_ cflt.tap2.delay_2.shift_reg\[4\] _2503_ VDD VSS INV_X1
X_5699_ cflt.tap2.delay_2.shift_reg\[7\] _2504_ VDD VSS INV_X1
X_5700_ _2501_ _2502_ _2503_ _2504_ _2505_ VDD VSS NAND4_X1
X_5701_ _2500_ _2505_ _2506_ VDD VSS NOR2_X1
X_5702_ cflt.tap2.delay_2.shift_reg\[15\] cflt.tap2.delay_2.shift_reg\[14\]
+ _2507_ VDD VSS NOR2_X1
X_5703_ cflt.tap2.delay_2.shift_reg\[12\] _2508_ VDD VSS INV_X1
X_5704_ _2508_ cflt.tap2.delay_2.shift_reg\[13\] _2509_ VDD
+ VSS NOR2_X1
X_5705_ _2495_ _2506_ _2507_ _2509_ _2510_ VDD VSS NAND4_X1
X_5706_ cflt.tap2.delay_2.shift_reg\[15\] cflt.tap2.delay_2.shift_reg\[13\]
+ _2511_ VDD VSS NOR2_X2
X_5707_ net933 _2512_ VDD VSS INV_X1
X_5708_ _2511_ _2512_ _2508_ _2513_ VDD VSS NAND3_X1
X_5709_ _2513_ _1526_ _2514_ VDD VSS XNOR2_X1
X_5710_ _2510_ _2514_ _2515_ VDD VSS NAND2_X1
X_5711_ _2515_ _2516_ VDD VSS INV_X4
X_5712_ _2516_ _1529_ _2517_ VDD VSS NOR2_X4
X_5713_ _2517_ _2518_ VDD VSS INV_X4
X_5714_ _2518_ _2501_ _1919_ VDD VSS NOR2_X2
Xclkbuf_leaf_85_clock clknet_4_11_0_clock clknet_leaf_85_clock
+ VDD VSS CLKBUF_X3
X_5716_ _1919_ cflt.tap2.mul_coeff_x_in.d2_in\[6\] _2520_
+ VDD VSS NAND2_X1
X_5717_ _2520_ _1531_ VDD VSS INV_X1
X_5718_ _2518_ _2504_ _1922_ VDD VSS NOR2_X2
Xclkbuf_leaf_84_clock clknet_4_10_0_clock clknet_leaf_84_clock
+ VDD VSS CLKBUF_X3
X_5720_ _1922_ cflt.tap2.mul_coeff_x_in.d2_in\[5\] _2522_
+ VDD VSS NAND2_X1
X_5721_ _2522_ _1530_ VDD VSS INV_X1
X_5722_ _2518_ _2497_ _1925_ VDD VSS NOR2_X2
Xclkbuf_leaf_83_clock clknet_4_14_0_clock clknet_leaf_83_clock
+ VDD VSS CLKBUF_X3
X_5724_ _1925_ cflt.tap2.mul_coeff_x_in.d2_in\[4\] _2524_
+ VDD VSS NAND2_X1
X_5725_ _2524_ _0171_ VDD VSS INV_X1
X_5726_ _2518_ _2496_ _1928_ VDD VSS NOR2_X2
Xclkbuf_leaf_82_clock clknet_4_14_0_clock clknet_leaf_82_clock
+ VDD VSS CLKBUF_X3
X_5728_ _1928_ cflt.tap2.mul_coeff_x_in.d2_in\[3\] _2526_
+ VDD VSS NAND2_X1
X_5729_ _2526_ _0170_ VDD VSS INV_X1
X_5730_ _2518_ _2499_ _1931_ VDD VSS NOR2_X2
Xclkbuf_leaf_81_clock clknet_4_14_0_clock clknet_leaf_81_clock
+ VDD VSS CLKBUF_X3
X_5732_ _1931_ cflt.tap2.mul_coeff_x_in.d2_in\[2\] _2528_
+ VDD VSS NAND2_X1
X_5733_ _2528_ _0169_ VDD VSS INV_X1
X_5734_ _1922_ cflt.tap2.mul_coeff_x_in.d2_in\[4\] _2529_
+ VDD VSS NAND2_X1
X_5735_ _2529_ _0174_ VDD VSS INV_X1
X_5736_ _1925_ cflt.tap2.mul_coeff_x_in.d2_in\[3\] _2530_
+ VDD VSS NAND2_X1
X_5737_ _2530_ _0173_ VDD VSS INV_X1
X_5738_ _1928_ cflt.tap2.mul_coeff_x_in.d2_in\[2\] _2531_
+ VDD VSS NAND2_X1
X_5739_ _2531_ _0172_ VDD VSS INV_X1
X_5740_ _1919_ cflt.tap2.mul_coeff_x_in.d2_in\[5\] _2532_
+ VDD VSS NAND2_X1
X_5741_ _2532_ _1536_ VDD VSS INV_X1
X_5742_ _2518_ _2498_ _1934_ VDD VSS NOR2_X2
Xclkbuf_leaf_80_clock clknet_4_11_0_clock clknet_leaf_80_clock
+ VDD VSS CLKBUF_X3
X_5744_ _1934_ cflt.tap2.mul_coeff_x_in.d2_in\[1\] _2534_
+ VDD VSS NAND2_X1
X_5745_ _2534_ _1533_ VDD VSS INV_X1
X_5746_ _2518_ cflt.tap2.delay_2.shift_reg\[12\] _2535_ VDD
+ VSS NOR2_X4
X_5747_ _2535_ _1937_ VDD VSS INV_X1
Xclkbuf_leaf_79_clock clknet_4_11_0_clock clknet_leaf_79_clock
+ VDD VSS CLKBUF_X3
X_5749_ _1937_ cflt.tap2.mul_coeff_x_in.d2_in\[0\] _1532_
+ VDD VSS AND2_X1
X_5750_ _1931_ cflt.tap2.mul_coeff_x_in.d2_in\[1\] _2537_
+ VDD VSS NAND2_X1
X_5751_ _2537_ _1535_ VDD VSS INV_X1
X_5752_ _1934_ cflt.tap2.mul_coeff_x_in.d2_in\[0\] _2538_
+ VDD VSS NAND2_X1
X_5753_ _2538_ _1534_ VDD VSS INV_X1
X_5754_ _0000_ _2539_ VDD VSS INV_X1
X_5755_ _1919_ _2539_ _0181_ VDD VSS NAND2_X1
X_5756_ _1928_ cflt.tap2.mul_coeff_x_in.d2_in\[1\] _2540_
+ VDD VSS NAND2_X1
X_5757_ _2540_ _1539_ VDD VSS INV_X1
X_5758_ _1931_ cflt.tap2.mul_coeff_x_in.d2_in\[0\] _2541_
+ VDD VSS NAND2_X1
X_5759_ _2541_ _1538_ VDD VSS INV_X1
X_5760_ _1922_ cflt.tap2.mul_coeff_x_in.d2_in\[2\] _2542_
+ VDD VSS NAND2_X1
X_5761_ _2542_ _1548_ VDD VSS INV_X1
X_5762_ _1919_ cflt.tap2.mul_coeff_x_in.d2_in\[3\] _2543_
+ VDD VSS NAND2_X1
X_5763_ _2543_ _1547_ VDD VSS INV_X1
X_5764_ _1925_ cflt.tap2.mul_coeff_x_in.d2_in\[1\] _2544_
+ VDD VSS NAND2_X1
X_5765_ _2544_ _1546_ VDD VSS INV_X1
X_5766_ _1928_ cflt.tap2.mul_coeff_x_in.d2_in\[0\] _2545_
+ VDD VSS NAND2_X1
X_5767_ _2545_ _1545_ VDD VSS INV_X1
X_5768_ _1922_ cflt.tap2.mul_coeff_x_in.d2_in\[1\] _2546_
+ VDD VSS NAND2_X1
X_5769_ _2546_ _1553_ VDD VSS INV_X1
X_5770_ _1925_ cflt.tap2.mul_coeff_x_in.d2_in\[0\] _2547_
+ VDD VSS NAND2_X1
X_5771_ _2547_ _1552_ VDD VSS INV_X1
X_5772_ _1553_ cflt.tap2.mul_coeff_x_in.d2_in\[0\] _1919_
+ _1554_ VDD VSS AND3_X1
X_5773_ _1919_ cflt.tap2.mul_coeff_x_in.d2_in\[2\] _1556_
+ _2548_ VDD VSS NAND3_X1
X_5774_ _2548_ _1557_ VDD VSS INV_X1
X_5775_ cflt.tap3.delay_2.shift_reg\[15\] cflt.tap3.delay_2.shift_reg\[13\]
+ _2549_ VDD VSS NOR2_X2
X_5776_ net936 _2550_ VDD VSS INV_X1
X_5777_ cflt.tap3.delay_2.shift_reg\[12\] _2551_ VDD VSS INV_X1
X_5778_ _2549_ _2550_ _2551_ _2552_ VDD VSS NAND3_X1
X_5779_ _2552_ _1560_ _2553_ VDD VSS XNOR2_X1
X_5780_ cflt.tap3.delay_2.shift_reg\[9\] _2554_ VDD VSS INV_X1
X_5781_ cflt.tap3.delay_2.shift_reg\[8\] _2555_ VDD VSS INV_X1
X_5782_ net960 _2556_ VDD VSS INV_X1
X_5783_ cflt.tap3.delay_2.shift_reg\[10\] _2557_ VDD VSS INV_X1
X_5784_ _2554_ _2555_ _2556_ _2557_ _2558_ VDD VSS NAND4_X1
X_5785_ _2558_ cflt.tap3.delay_2.shift_reg\[2\] cflt.tap3.delay_2.shift_reg\[7\]
+ _2559_ VDD VSS NOR3_X1
X_5786_ cflt.tap3.delay_2.shift_reg\[6\] cflt.tap3.delay_2.shift_reg\[1\]
+ cflt.tap3.delay_2.shift_reg\[0\] cflt.tap3.delay_2.shift_reg\[3\]
+ _2560_ VDD VSS NOR4_X1
X_5787_ _2559_ cflt.tap3.delay_2.shift_reg\[12\] _2560_ _2561_
+ VDD VSS NAND3_X1
X_5788_ cflt.tap3.delay_2.shift_reg\[5\] _2562_ VDD VSS INV_X1
X_5789_ cflt.tap3.delay_2.shift_reg\[4\] _2563_ VDD VSS INV_X1
X_5790_ _2549_ _2550_ _2562_ _2563_ _2564_ VDD VSS NAND4_X1
X_5791_ _2553_ _2561_ _2564_ _2565_ VDD VSS OAI21_X2
X_5792_ _2565_ _2566_ VDD VSS INV_X4
X_5793_ _2566_ _1563_ _2567_ VDD VSS NOR2_X4
X_5794_ _2567_ cflt.tap3.delay_2.shift_reg\[6\] _2568_ VDD
+ VSS AND2_X1
Xclkbuf_leaf_78_clock clknet_4_11_0_clock clknet_leaf_78_clock
+ VDD VSS CLKBUF_X3
Xclkbuf_leaf_77_clock clknet_4_11_0_clock clknet_leaf_77_clock
+ VDD VSS CLKBUF_X3
X_5797_ _2568_ cflt.tap3.mul_coeff_x_in.d2_in\[6\] _2570_
+ VDD VSS NAND2_X1
X_5798_ _2570_ _1565_ VDD VSS INV_X1
X_5799_ _2567_ cflt.tap3.delay_2.shift_reg\[7\] _2571_ VDD
+ VSS AND2_X1
Xclkbuf_leaf_76_clock clknet_4_9_0_clock clknet_leaf_76_clock
+ VDD VSS CLKBUF_X3
Xclkbuf_leaf_75_clock clknet_4_9_0_clock clknet_leaf_75_clock
+ VDD VSS CLKBUF_X3
X_5802_ _2571_ cflt.tap3.mul_coeff_x_in.d2_in\[5\] _2573_
+ VDD VSS NAND2_X1
X_5803_ _2573_ _1564_ VDD VSS INV_X1
X_5804_ _2567_ _2574_ VDD VSS INV_X4
X_5805_ _2574_ _2555_ _2009_ VDD VSS NOR2_X2
Xclkbuf_leaf_74_clock clknet_4_11_0_clock clknet_leaf_74_clock
+ VDD VSS CLKBUF_X3
X_5807_ _2009_ cflt.tap3.mul_coeff_x_in.d2_in\[4\] _2576_
+ VDD VSS NAND2_X1
X_5808_ _2576_ _0192_ VDD VSS INV_X1
X_5809_ _2574_ _2554_ _2012_ VDD VSS NOR2_X2
Xclkbuf_leaf_73_clock clknet_4_14_0_clock clknet_leaf_73_clock
+ VDD VSS CLKBUF_X3
X_5811_ _2012_ cflt.tap3.mul_coeff_x_in.d2_in\[3\] _2578_
+ VDD VSS NAND2_X1
X_5812_ _2578_ _0191_ VDD VSS INV_X1
X_5813_ _2574_ _2557_ _2015_ VDD VSS NOR2_X2
Xclkbuf_leaf_72_clock clknet_4_12_0_clock clknet_leaf_72_clock
+ VDD VSS CLKBUF_X3
X_5815_ _2015_ cflt.tap3.mul_coeff_x_in.d2_in\[2\] _2580_
+ VDD VSS NAND2_X1
X_5816_ _2580_ _0190_ VDD VSS INV_X1
X_5817_ _2571_ cflt.tap3.mul_coeff_x_in.d2_in\[4\] _2581_
+ VDD VSS NAND2_X1
X_5818_ _2581_ _0195_ VDD VSS INV_X1
X_5819_ _2009_ cflt.tap3.mul_coeff_x_in.d2_in\[3\] _2582_
+ VDD VSS NAND2_X1
X_5820_ _2582_ _0194_ VDD VSS INV_X1
X_5821_ _2012_ cflt.tap3.mul_coeff_x_in.d2_in\[2\] _2583_
+ VDD VSS NAND2_X1
X_5822_ _2583_ _0193_ VDD VSS INV_X1
X_5823_ _2568_ cflt.tap3.mul_coeff_x_in.d2_in\[5\] _2584_
+ VDD VSS NAND2_X1
X_5824_ _2584_ _1570_ VDD VSS INV_X1
X_5825_ _2574_ _2556_ _2018_ VDD VSS NOR2_X2
Xclkbuf_leaf_71_clock clknet_4_9_0_clock clknet_leaf_71_clock
+ VDD VSS CLKBUF_X3
X_5827_ _2018_ cflt.tap3.mul_coeff_x_in.d2_in\[1\] _2586_
+ VDD VSS NAND2_X1
X_5828_ _2586_ _1567_ VDD VSS INV_X1
X_5829_ _2574_ cflt.tap3.delay_2.shift_reg\[12\] _2587_ VDD
+ VSS NOR2_X4
X_5830_ _2587_ _2021_ VDD VSS INV_X1
Xclkbuf_leaf_70_clock clknet_4_12_0_clock clknet_leaf_70_clock
+ VDD VSS CLKBUF_X3
X_5832_ _2021_ cflt.tap3.mul_coeff_x_in.d2_in\[0\] _1566_
+ VDD VSS AND2_X1
X_5833_ _2015_ cflt.tap3.mul_coeff_x_in.d2_in\[1\] _2589_
+ VDD VSS NAND2_X1
X_5834_ _2589_ _1569_ VDD VSS INV_X1
X_5835_ _2018_ cflt.tap3.mul_coeff_x_in.d2_in\[0\] _2590_
+ VDD VSS NAND2_X1
X_5836_ _2590_ _1568_ VDD VSS INV_X1
X_5837_ _0001_ _2591_ VDD VSS INV_X1
X_5838_ _2568_ _2591_ _0202_ VDD VSS NAND2_X1
X_5839_ _2012_ cflt.tap3.mul_coeff_x_in.d2_in\[1\] _2592_
+ VDD VSS NAND2_X1
X_5840_ _2592_ _1573_ VDD VSS INV_X1
X_5841_ _2015_ cflt.tap3.mul_coeff_x_in.d2_in\[0\] _2593_
+ VDD VSS NAND2_X1
X_5842_ _2593_ _1572_ VDD VSS INV_X1
X_5843_ _2571_ cflt.tap3.mul_coeff_x_in.d2_in\[2\] _2594_
+ VDD VSS NAND2_X1
X_5844_ _2594_ _1582_ VDD VSS INV_X1
X_5845_ _2568_ cflt.tap3.mul_coeff_x_in.d2_in\[3\] _2595_
+ VDD VSS NAND2_X1
X_5846_ _2595_ _1581_ VDD VSS INV_X1
X_5847_ _2009_ cflt.tap3.mul_coeff_x_in.d2_in\[1\] _2596_
+ VDD VSS NAND2_X1
X_5848_ _2596_ _1580_ VDD VSS INV_X1
X_5849_ _2012_ cflt.tap3.mul_coeff_x_in.d2_in\[0\] _2597_
+ VDD VSS NAND2_X1
X_5850_ _2597_ _1579_ VDD VSS INV_X1
X_5851_ _2571_ cflt.tap3.mul_coeff_x_in.d2_in\[1\] _2598_
+ VDD VSS NAND2_X1
X_5852_ _2598_ _1587_ VDD VSS INV_X1
X_5853_ _2009_ cflt.tap3.mul_coeff_x_in.d2_in\[0\] _2599_
+ VDD VSS NAND2_X1
X_5854_ _2599_ _1586_ VDD VSS INV_X1
X_5855_ _1587_ cflt.tap3.mul_coeff_x_in.d2_in\[0\] _2568_
+ _1588_ VDD VSS AND3_X1
X_5856_ _2568_ cflt.tap3.mul_coeff_x_in.d2_in\[2\] _1590_
+ _2600_ VDD VSS NAND3_X1
X_5857_ _2600_ _1591_ VDD VSS INV_X1
X_5858_ cflt.tap4.delay_2.shift_reg\[9\] cflt.tap4.delay_2.shift_reg\[8\]
+ cflt.tap4.delay_2.shift_reg\[11\] cflt.tap4.delay_2.shift_reg\[10\]
+ _2601_ VDD VSS NOR4_X2
X_5859_ cflt.tap4.delay_2.shift_reg\[1\] cflt.tap4.delay_2.shift_reg\[0\]
+ cflt.tap4.delay_2.shift_reg\[3\] cflt.tap4.delay_2.shift_reg\[2\]
+ _2602_ VDD VSS NOR4_X2
X_5860_ cflt.tap4.delay_2.shift_reg\[6\] cflt.tap4.delay_2.shift_reg\[5\]
+ cflt.tap4.delay_2.shift_reg\[4\] cflt.tap4.delay_2.shift_reg\[7\]
+ _2603_ VDD VSS NOR4_X2
X_5861_ cflt.tap4.delay_2.shift_reg\[12\] _2604_ VDD VSS INV_X2
X_5862_ cflt.tap4.delay_2.shift_reg\[15\] _2604_ cflt.tap4.delay_2.shift_reg\[14\]
+ cflt.tap4.delay_2.shift_reg\[13\] _2605_ VDD VSS NOR4_X4
X_5863_ _2601_ _2602_ _2603_ _2605_ _2606_ VDD VSS NAND4_X4
X_5864_ cflt.tap4.delay_2.shift_reg\[15\] cflt.tap4.delay_2.shift_reg\[13\]
+ _2607_ VDD VSS OR2_X4
X_5865_ _2607_ cflt.tap4.delay_2.shift_reg\[14\] cflt.tap4.delay_2.shift_reg\[12\]
+ _2608_ VDD VSS NOR3_X4
X_5866_ _2608_ net957 _2609_ VDD VSS XOR2_X2
X_5867_ _2606_ _2609_ _2610_ VDD VSS NAND2_X4
X_5868_ _1597_ _2611_ VDD VSS INV_X1
X_5869_ _2610_ _2611_ _2612_ VDD VSS NAND2_X2
X_5870_ _2612_ _2613_ VDD VSS INV_X1
Xclkbuf_leaf_69_clock clknet_4_12_0_clock clknet_leaf_69_clock
+ VDD VSS CLKBUF_X3
X_5872_ _2613_ cflt.tap4.delay_2.shift_reg\[6\] _2615_ VDD
+ VSS NAND2_X1
X_5873_ _2615_ _2087_ VDD VSS INV_X2
Xclkbuf_leaf_68_clock clknet_4_14_0_clock clknet_leaf_68_clock
+ VDD VSS CLKBUF_X3
X_5875_ _2087_ cflt.tap4.mul_coeff_x_in.d2_in\[6\] _2617_
+ VDD VSS NAND2_X1
X_5876_ _2617_ _1599_ VDD VSS INV_X1
X_5877_ _2613_ cflt.tap4.delay_2.shift_reg\[7\] _2618_ VDD
+ VSS NAND2_X1
X_5878_ _2618_ _2090_ VDD VSS INV_X1
Xclkbuf_leaf_67_clock clknet_4_15_0_clock clknet_leaf_67_clock
+ VDD VSS CLKBUF_X3
X_5880_ _2090_ cflt.tap4.mul_coeff_x_in.d2_in\[5\] _2620_
+ VDD VSS NAND2_X1
X_5881_ _2620_ _1598_ VDD VSS INV_X1
X_5882_ _2613_ cflt.tap4.delay_2.shift_reg\[8\] _2621_ VDD
+ VSS AND2_X1
Xclkbuf_leaf_66_clock clknet_4_14_0_clock clknet_leaf_66_clock
+ VDD VSS CLKBUF_X3
Xclkbuf_leaf_65_clock clknet_4_15_0_clock clknet_leaf_65_clock
+ VDD VSS CLKBUF_X3
X_5885_ _2621_ cflt.tap4.mul_coeff_x_in.d2_in\[4\] _2623_
+ VDD VSS NAND2_X1
X_5886_ _2623_ _0213_ VDD VSS INV_X1
X_5887_ _2613_ cflt.tap4.delay_2.shift_reg\[9\] _2624_ VDD
+ VSS AND2_X1
Xclkbuf_leaf_64_clock clknet_4_15_0_clock clknet_leaf_64_clock
+ VDD VSS CLKBUF_X3
Xclkbuf_leaf_63_clock clknet_4_15_0_clock clknet_leaf_63_clock
+ VDD VSS CLKBUF_X3
X_5890_ _2624_ cflt.tap4.mul_coeff_x_in.d2_in\[3\] _2626_
+ VDD VSS NAND2_X1
X_5891_ _2626_ _0212_ VDD VSS INV_X1
X_5892_ _2613_ cflt.tap4.delay_2.shift_reg\[10\] _2627_ VDD
+ VSS AND2_X1
Xclkbuf_leaf_62_clock clknet_4_13_0_clock clknet_leaf_62_clock
+ VDD VSS CLKBUF_X3
Xclkbuf_leaf_61_clock clknet_4_13_0_clock clknet_leaf_61_clock
+ VDD VSS CLKBUF_X3
X_5895_ _2627_ cflt.tap4.mul_coeff_x_in.d2_in\[2\] _2629_
+ VDD VSS NAND2_X1
X_5896_ _2629_ _0211_ VDD VSS INV_X1
X_5897_ _2090_ cflt.tap4.mul_coeff_x_in.d2_in\[4\] _2630_
+ VDD VSS NAND2_X1
X_5898_ _2630_ _0216_ VDD VSS INV_X1
X_5899_ _2621_ cflt.tap4.mul_coeff_x_in.d2_in\[3\] _2631_
+ VDD VSS NAND2_X1
X_5900_ _2631_ _0215_ VDD VSS INV_X1
X_5901_ _2624_ cflt.tap4.mul_coeff_x_in.d2_in\[2\] _2632_
+ VDD VSS NAND2_X1
X_5902_ _2632_ _0214_ VDD VSS INV_X1
X_5903_ _2087_ cflt.tap4.mul_coeff_x_in.d2_in\[5\] _2633_
+ VDD VSS NAND2_X1
X_5904_ _2633_ _1604_ VDD VSS INV_X1
X_5905_ _2613_ net964 _2634_ VDD VSS NAND2_X1
X_5906_ _2634_ _2102_ VDD VSS INV_X2
Xclkbuf_leaf_60_clock clknet_4_13_0_clock clknet_leaf_60_clock
+ VDD VSS CLKBUF_X3
X_5908_ _2102_ cflt.tap4.mul_coeff_x_in.d2_in\[1\] _2636_
+ VDD VSS NAND2_X1
X_5909_ _2636_ _1601_ VDD VSS INV_X1
X_5910_ _2612_ cflt.tap4.delay_2.shift_reg\[12\] _2637_ VDD
+ VSS NOR2_X4
Xclkbuf_leaf_59_clock clknet_4_13_0_clock clknet_leaf_59_clock
+ VDD VSS CLKBUF_X3
X_5912_ cflt.tap4.mul_coeff_x_in.d2_in\[0\] _2639_ VDD VSS
+ INV_X1
X_5913_ _2637_ _2639_ _1600_ VDD VSS NOR2_X1
X_5914_ _2627_ cflt.tap4.mul_coeff_x_in.d2_in\[1\] _2640_
+ VDD VSS NAND2_X1
X_5915_ _2640_ _1603_ VDD VSS INV_X1
X_5916_ _2102_ cflt.tap4.mul_coeff_x_in.d2_in\[0\] _2641_
+ VDD VSS NAND2_X1
X_5917_ _2641_ _1602_ VDD VSS INV_X1
X_5918_ _0002_ _2642_ VDD VSS INV_X1
X_5919_ _2087_ _2642_ _0223_ VDD VSS NAND2_X1
X_5920_ _2624_ cflt.tap4.mul_coeff_x_in.d2_in\[1\] _2643_
+ VDD VSS NAND2_X1
X_5921_ _2643_ _1607_ VDD VSS INV_X1
X_5922_ _2627_ cflt.tap4.mul_coeff_x_in.d2_in\[0\] _2644_
+ VDD VSS NAND2_X1
X_5923_ _2644_ _1606_ VDD VSS INV_X1
X_5924_ _2090_ cflt.tap4.mul_coeff_x_in.d2_in\[2\] _2645_
+ VDD VSS NAND2_X1
X_5925_ _2645_ _1616_ VDD VSS INV_X1
X_5926_ _2087_ cflt.tap4.mul_coeff_x_in.d2_in\[3\] _2646_
+ VDD VSS NAND2_X1
X_5927_ _2646_ _1615_ VDD VSS INV_X1
X_5928_ _2621_ cflt.tap4.mul_coeff_x_in.d2_in\[1\] _2647_
+ VDD VSS NAND2_X1
X_5929_ _2647_ _1614_ VDD VSS INV_X1
X_5930_ _2624_ cflt.tap4.mul_coeff_x_in.d2_in\[0\] _2648_
+ VDD VSS NAND2_X1
X_5931_ _2648_ _1613_ VDD VSS INV_X1
X_5932_ _2090_ cflt.tap4.mul_coeff_x_in.d2_in\[1\] _2649_
+ VDD VSS NAND2_X1
X_5933_ _2649_ _1621_ VDD VSS INV_X1
X_5934_ _2621_ cflt.tap4.mul_coeff_x_in.d2_in\[0\] _2650_
+ VDD VSS NAND2_X1
X_5935_ _2650_ _1620_ VDD VSS INV_X1
X_5936_ _2649_ _2639_ _2615_ _1622_ VDD VSS NOR3_X1
X_5937_ _2087_ cflt.tap4.mul_coeff_x_in.d2_in\[2\] _1624_
+ _2651_ VDD VSS NAND3_X1
X_5938_ _2651_ _1625_ VDD VSS INV_X1
X_5939_ cflt.tap5.delay_2.shift_reg\[12\] _2652_ VDD VSS INV_X1
X_5940_ _2652_ cflt.tap5.delay_2.shift_reg\[13\] _2653_ VDD
+ VSS NOR2_X1
X_5941_ cflt.tap5.delay_2.shift_reg\[15\] cflt.tap5.delay_2.shift_reg\[14\]
+ _2654_ VDD VSS NOR2_X1
X_5942_ _2653_ _2654_ _2655_ VDD VSS NAND2_X1
X_5943_ cflt.tap5.delay_2.shift_reg\[0\] cflt.tap5.delay_2.shift_reg\[1\]
+ _2656_ VDD VSS NOR2_X1
X_5944_ cflt.tap5.delay_2.shift_reg\[3\] cflt.tap5.delay_2.shift_reg\[2\]
+ _2657_ VDD VSS NOR2_X1
X_5945_ _2656_ _2657_ _2658_ VDD VSS NAND2_X1
X_5946_ _2655_ _2658_ _2659_ VDD VSS NOR2_X2
X_5947_ cflt.tap5.delay_2.shift_reg\[9\] cflt.tap5.delay_2.shift_reg\[8\]
+ _2660_ VDD VSS NOR2_X1
X_5948_ cflt.tap5.delay_2.shift_reg\[11\] cflt.tap5.delay_2.shift_reg\[10\]
+ _2661_ VDD VSS NOR2_X1
X_5949_ _2660_ _2661_ _2662_ VDD VSS NAND2_X1
X_5950_ cflt.tap5.delay_2.shift_reg\[5\] cflt.tap5.delay_2.shift_reg\[4\]
+ _2663_ VDD VSS NOR2_X1
X_5951_ cflt.tap5.delay_2.shift_reg\[7\] cflt.tap5.delay_2.shift_reg\[6\]
+ _2664_ VDD VSS NOR2_X1
X_5952_ _2663_ _2664_ _2665_ VDD VSS NAND2_X1
X_5953_ _2662_ _2665_ _2666_ VDD VSS NOR2_X1
X_5954_ _2659_ _2666_ _2667_ VDD VSS NAND2_X2
X_5955_ cflt.tap5.delay_2.shift_reg\[15\] cflt.tap5.delay_2.shift_reg\[13\]
+ _2668_ VDD VSS NOR2_X2
X_5956_ cflt.tap5.delay_2.shift_reg\[14\] cflt.tap5.delay_2.shift_reg\[12\]
+ _2669_ VDD VSS NOR2_X1
X_5957_ _2668_ _2669_ _2670_ VDD VSS NAND2_X1
X_5958_ _2670_ _1628_ _2671_ VDD VSS NAND2_X1
X_5959_ _1628_ _2672_ VDD VSS INV_X1
X_5960_ _2668_ _2669_ _2672_ _2673_ VDD VSS NAND3_X1
X_5961_ _2671_ _2673_ _2674_ VDD VSS NAND2_X1
X_5962_ _2667_ _2674_ _2675_ VDD VSS NAND2_X4
Xclkbuf_leaf_58_clock clknet_4_13_0_clock clknet_leaf_58_clock
+ VDD VSS CLKBUF_X3
X_5964_ _1631_ _2677_ VDD VSS INV_X1
Xclkbuf_leaf_57_clock clknet_4_12_0_clock clknet_leaf_57_clock
+ VDD VSS CLKBUF_X3
X_5966_ _2675_ net3789 _2677_ _2417_ VDD VSS AND3_X1
Xclkbuf_leaf_56_clock clknet_4_12_0_clock clknet_leaf_56_clock
+ VDD VSS CLKBUF_X3
Xclkbuf_leaf_55_clock clknet_4_13_0_clock clknet_leaf_55_clock
+ VDD VSS CLKBUF_X3
X_5969_ cflt.tap3.shiftue\[4\] cflt.tap3.shiftxn\[0\] _2681_
+ VDD VSS NAND2_X1
X_5970_ _2681_ _0234_ VDD VSS INV_X1
Xclkbuf_leaf_54_clock clknet_4_13_0_clock clknet_leaf_54_clock
+ VDD VSS CLKBUF_X3
Xclkbuf_leaf_53_clock clknet_4_6_0_clock clknet_leaf_53_clock
+ VDD VSS CLKBUF_X3
X_5973_ cflt.tap3.shiftue\[3\] cflt.tap3.shiftxn\[1\] _2684_
+ VDD VSS NAND2_X1
X_5974_ _2684_ _0233_ VDD VSS INV_X1
Xclkbuf_leaf_52_clock clknet_4_6_0_clock clknet_leaf_52_clock
+ VDD VSS CLKBUF_X3
Xclkbuf_leaf_51_clock clknet_4_6_0_clock clknet_leaf_51_clock
+ VDD VSS CLKBUF_X3
X_5977_ cflt.tap3.shiftue\[2\] cflt.tap3.shiftxn\[2\] _2687_
+ VDD VSS NAND2_X1
X_5978_ _2687_ _0232_ VDD VSS INV_X1
X_5979_ cflt.tap3.shiftxn\[1\] cflt.tap3.shiftue\[2\] _2688_
+ VDD VSS NAND2_X1
X_5980_ _2688_ _1643_ VDD VSS INV_X1
X_5981_ cflt.tap3.shiftxn\[0\] cflt.tap3.shiftue\[3\] _2689_
+ VDD VSS NAND2_X1
X_5982_ _2689_ _1642_ VDD VSS INV_X1
Xclkbuf_leaf_50_clock clknet_4_6_0_clock clknet_leaf_50_clock
+ VDD VSS CLKBUF_X3
Xclkbuf_leaf_49_clock clknet_4_6_0_clock clknet_leaf_49_clock
+ VDD VSS CLKBUF_X3
X_5985_ cflt.tap3.shiftue\[1\] cflt.tap3.shiftxn\[3\] _2692_
+ VDD VSS NAND2_X1
X_5986_ _2692_ _1633_ VDD VSS INV_X1
Xclkbuf_leaf_48_clock clknet_4_7_0_clock clknet_leaf_48_clock
+ VDD VSS CLKBUF_X3
Xclkbuf_leaf_47_clock clknet_4_7_0_clock clknet_leaf_47_clock
+ VDD VSS CLKBUF_X3
X_5989_ cflt.tap3.shiftue\[0\] cflt.tap3.shiftxn\[4\] _2695_
+ VDD VSS NAND2_X1
X_5990_ _2695_ _1632_ VDD VSS INV_X1
X_5991_ cflt.tap3.shiftxn\[2\] cflt.tap3.shiftue\[1\] _2696_
+ VDD VSS NAND2_X1
X_5992_ _2696_ _1640_ VDD VSS INV_X1
X_5993_ cflt.tap3.shiftxn\[3\] cflt.tap3.shiftue\[0\] _2697_
+ VDD VSS NAND2_X1
X_5994_ _2697_ _1639_ VDD VSS INV_X1
X_5995_ cflt.tap3.shiftxn\[1\] cflt.tap3.shiftue\[1\] _2698_
+ VDD VSS NAND2_X1
X_5996_ _2698_ _1646_ VDD VSS INV_X1
X_5997_ cflt.tap3.shiftxn\[2\] cflt.tap3.shiftue\[0\] _2699_
+ VDD VSS NAND2_X1
X_5998_ _2699_ _1645_ VDD VSS INV_X1
X_5999_ _1646_ net620 net655 _1647_ VDD VSS AND3_X1
X_6000_ net620 cflt.tap3.shiftue\[2\] _1649_ _1650_ VDD VSS
+ AND3_X1
Xclkbuf_leaf_46_clock clknet_4_7_0_clock clknet_leaf_46_clock
+ VDD VSS CLKBUF_X3
Xclkbuf_leaf_45_clock clknet_4_7_0_clock clknet_leaf_45_clock
+ VDD VSS CLKBUF_X3
X_6003_ cflt.tap1.shiftue\[4\] cflt.tap1.shiftxn\[0\] _2702_
+ VDD VSS NAND2_X1
X_6004_ _2702_ _0247_ VDD VSS INV_X1
Xclkbuf_leaf_44_clock clknet_4_7_0_clock clknet_leaf_44_clock
+ VDD VSS CLKBUF_X3
Xclkbuf_leaf_43_clock clknet_4_7_0_clock clknet_leaf_43_clock
+ VDD VSS CLKBUF_X3
X_6007_ cflt.tap1.shiftue\[3\] cflt.tap1.shiftxn\[1\] _2705_
+ VDD VSS NAND2_X1
X_6008_ _2705_ _0246_ VDD VSS INV_X1
Xclkbuf_leaf_42_clock clknet_4_7_0_clock clknet_leaf_42_clock
+ VDD VSS CLKBUF_X3
Xclkbuf_leaf_41_clock clknet_4_5_0_clock clknet_leaf_41_clock
+ VDD VSS CLKBUF_X3
X_6011_ cflt.tap1.shiftue\[2\] cflt.tap1.shiftxn\[2\] _2708_
+ VDD VSS NAND2_X1
X_6012_ _2708_ _0245_ VDD VSS INV_X1
X_6013_ cflt.tap1.shiftxn\[1\] cflt.tap1.shiftue\[2\] _2709_
+ VDD VSS NAND2_X1