* Extracted by KLayout on : 28/03/2026 12:21

.SUBCKT tf_lms_sv err[7] err[6] err[5] err[4] err[3] err[1] err[0] adapt_en VSS
+ VDD dxin[0] dxin[1] dxin[3] dxin[4] dxin[2] dxin[5] dxin[6] dxin[7] clock
+ yout[5] yout[0] yout[1] yout[7] yout[4] yout[6] yout[2] yout[3] err[2] xin[1]
+ xin[6] xin[4] xin[7] xin[0] xin[5] xin[2] reset xin[3]
X$2 \$33 VSS VDD err[7] BUF_X1
X$8 \$43 VSS VDD err[6] BUF_X1
X$14 \$153 VSS VDD err[5] BUF_X1
X$20 \$263 VSS VDD err[4] BUF_X1
X$26 \$584 VSS VDD err[3] BUF_X1
X$32 \$205 VSS VDD err[1] BUF_X1
X$38 \$19 VSS VDD err[0] BUF_X1
X$44 adapt_en VSS VDD \$21 BUF_X1
X$49 \$1339 VSS VDD \$I101714 INV_X2
X$51 \$1299 VSS VDD \$1301 CLKBUF_X1
X$52 \$1389 VSS VDD \$1383 CLKBUF_X1
X$53 \$1383 VSS VDD \$1299 CLKBUF_X1
X$54 VSS \$1339 \$I100532 \$1156 \$1381 \$1304 VDD DFFR_X1
X$55 \$1388 VSS VDD \$1391 CLKBUF_X1
X$56 \$1157 VSS VDD \$1267 CLKBUF_X1
X$57 \$1391 VSS VDD \$1515 CLKBUF_X1
X$58 \$1267 VSS VDD \$1388 CLKBUF_X1
X$65 \$964 \$1063 VSS VDD \$1315 XOR2_X1
X$73 \$1509 VSS VDD \$1381 CLKBUF_X1
X$74 VSS \$1339 \$I99815 \$1595 \$912 \$1304 VDD DFFR_X1
X$76 VSS \$1339 \$I99883 \$1648 \$1515 \$1304 VDD DFFR_X1
X$78 \$1520 VSS VDD \$1769 CLKBUF_X1
X$79 \$1651 VSS VDD \$1520 CLKBUF_X1
X$82 \$1770 VSS VDD \$1481 CLKBUF_X1
X$83 \$1523 VSS VDD \$1698 CLKBUF_X1
X$84 \$1481 VSS VDD \$1523 CLKBUF_X1
X$85 \$1522 VSS VDD \$1653 CLKBUF_X1
X$90 \$1598 VSS VDD \$1526 INV_X1
X$91 \$1526 \$1482 \$1483 VDD \$1097 VSS OAI21_X1
X$95 \$1533 VSS VDD \$1483 INV_X1
X$98 \$1403 \$1269 \$1598 VDD VSS \$1533 HA_X1
X$101 \$1538 VSS VDD \$1403 INV_X1
X$102 VSS \$1540 \$1538 \$1667 \$1158 \$1343 VDD FA_X1
X$104 VSS \$1406 \$1343 \$1544 \$1423 \$1270 VDD FA_X1
X$111 VSS \$1672 \$1540 \$1670 \$1066 \$1544 VDD FA_X1
X$114 \$1547 \$1548 \$1344 VDD VSS \$1676 HA_X1
X$115 \$293 \$428 VSS VDD \$1548 NOR2_X1
X$116 \$169 \$25 VSS VDD \$1547 NOR2_X1
X$118 \$1553 \$919 \$69 VDD VSS \$1485 HA_X1
X$121 \$1486 \$1707 VSS VDD \$919 NOR2_X1
X$123 \$1690 VSS VDD \$153 INV_X1
X$125 VSS \$1425 \$1329 \$1336 \$1347 \$1273 VDD FA_X1
X$126 \$1348 VSS VDD \$1711 CLKBUF_X1
X$129 \$362 VSS VDD \$1349 CLKBUF_X1
X$130 \$1436 VSS VDD \$1230 CLKBUF_X1
X$131 \$1274 VSS VDD \$1436 CLKBUF_X1
X$132 VSS \$589 \$I100451 \$2054 \$1351 \$45 VDD DFFR_X1
X$133 \$1069 VSS VDD \$1233 CLKBUF_X1
X$134 \$1449 VSS VDD \$1334 CLKBUF_X1
X$138 \$1486 \$33 VSS VDD \$1422 NAND2_X1
X$139 \$1161 \$1486 \$1422 VDD \$1553 VSS OAI21_X1
X$140 \$131 VSS VDD \$1488 CLKBUF_X1
X$141 VSS \$1688 \$1423 \$1686 \$925 \$2589 VDD FA_X1
X$143 \$1350 VSS VDD \$1684 CLKBUF_X1
X$144 \$1441 VSS VDD \$1489 CLKBUF_X1
X$145 \$1575 VSS VDD \$1351 CLKBUF_X1
X$146 \$1489 VSS VDD \$1575 CLKBUF_X1
X$148 \$386 VSS VDD \$1449 CLKBUF_X1
X$149 \$137 VSS VDD \$1681 CLKBUF_X1
X$152 \$1332 VSS VDD \$1454 CLKBUF_X1
X$154 \$1454 VSS VDD \$1352 CLKBUF_X1
X$155 \$1353 VSS VDD \$1457 CLKBUF_X1
X$156 \$1457 VSS VDD \$1331 CLKBUF_X1
X$159 \$1331 VSS VDD \$1581 CLKBUF_X1
X$160 VSS \$720 \$I100092 \$1607 \$1581 \$45 VDD DFFR_X1
X$162 \$1071 VSS VDD \$1354 CLKBUF_X1
X$165 VSS \$1281 \$1277 \$1880 \$1458 \$1461 VDD FA_X1
X$167 VSS \$1323 \$1461 \$1325 \$1279 \$1467 VDD FA_X1
X$171 \$1167 VSS VDD \$1458 INV_X1
X$174 \$1284 VSS VDD \$1459 INV_X1
X$176 \$1278 VSS VDD \$1490 INV_X1
X$177 \$1589 \$1490 VSS VDD \$1255 NAND2_X1
X$180 \$1589 VSS VDD \$1279 INV_X1
X$183 \$1469 VSS VDD \$1467 INV_X1
X$185 VSS \$1472 \$1253 \$1323 \$1468 \$1282 VDD FA_X1
X$187 \$727 \$1321 VSS VDD \$1472 NAND2_X1
X$191 VSS \$725 \$I100338 \$1363 \$1464 \$327 VDD DFFR_X1
X$192 \$1363 \$395 \$397 VSS VDD \$1172 NAND3_X1
X$193 \$1452 VSS VDD \$1464 CLKBUF_X1
X$195 \$1448 \$1173 VDD VSS \$1452 XNOR2_X1
X$199 \$1884 VSS VDD \$938 CLKBUF_X1
X$200 \$1847 VSS VDD \$1169 CLKBUF_X1
X$203 \$727 \$1494 VSS VDD \$1359 NAND2_X1
X$204 \$1579 VSS VDD \$1244 CLKBUF_X1
X$205 \$1359 VSS VDD \$1492 INV_X1
X$208 \$1171 \$1493 VSS VDD \$1468 NAND2_X1
X$211 \$1493 VSS VDD \$1494 INV_X1
X$212 \$1574 VSS VDD \$684 CLKBUF_X1
X$215 VSS \$725 \$I100017 \$1495 \$1566 \$327 VDD DFFR_X1
X$216 \$1495 \$395 \$397 VSS VDD \$1493 NAND3_X1
X$217 \$1495 \$1363 VSS VDD \$1568 NOR2_X1
X$222 \$1569 VSS VDD \$1448 CLKBUF_X1
X$223 \$1568 \$1496 VSS VDD \$1420 NAND2_X1
X$224 \$1367 \$1567 \$1366 VSS \$1569 VDD AOI21_X1
X$225 \$1367 \$1567 \$1368 VSS \$1447 VDD AOI21_X1
X$227 \$1617 VSS VDD \$1288 INV_X1
X$229 \$1567 VSS VDD \$1370 INV_X1
X$231 \$1368 \$1370 VDD VSS \$1566 XNOR2_X1
X$232 \$1369 \$1370 \$1288 VDD \$1216 VSS OAI21_X1
X$234 \$1370 \$1618 \$1177 VSS VDD \$1431 NOR3_X1
X$238 \$1832 \$1431 VSS VDD \$1289 NAND2_X1
X$239 \$1316 \$1431 \$1430 VSS \$1424 VDD AOI21_X1
X$240 \$1289 \$1624 \$1424 VDD \$215 VSS OAI21_X1
X$243 VSS \$464 \$I100163 \$1372 \$1417 \$327 VDD DFFR_X1
X$247 \$1561 \$1420 VSS VDD \$729 NOR2_X1
X$250 \$1659 \$1556 VSS VDD \$1561 NAND2_X1
X$251 VSS \$464 \$I100118 \$1499 \$1620 \$327 VDD DFFR_X1
X$252 \$1372 \$1499 VSS VDD \$1556 NOR2_X1
X$253 \$397 \$395 \$1372 VDD VSS \$1546 AND3_X1
X$254 \$1414 VSS VDD \$1417 CLKBUF_X1
X$258 \$397 \$395 \$1499 VDD VSS \$1657 AND3_X1
X$263 \$946 \$1373 VSS VDD \$1414 XOR2_X1
X$265 \$1374 \$1500 \$1084 VSS \$1624 VDD AOI21_X1
X$269 \$1179 VSS VDD \$1375 INV_X1
X$273 \$1396 \$1398 \$1085 VDD VSS \$1399 HA_X1
X$277 \$1632 VSS VDD \$1310 INV_X1
X$279 \$1633 VSS VDD \$1312 INV_X1
X$282 \$1500 VSS VDD \$1373 CLKBUF_X1
X$283 \$1542 \$1546 \$1500 VDD VSS \$1374 HA_X1
X$286 \$1535 VSS VDD \$1542 CLKBUF_X1
X$287 VSS \$464 \$I99807 \$1535 \$1530 \$327 VDD DFFR_X1
X$291 \$1504 \$1625 VDD VSS \$1530 XNOR2_X1
X$292 \$1629 \$1504 VSS VDD \$1503 NAND2_X1
X$294 \$1506 \$1294 \$1375 VSS \$1505 VDD AOI21_X1
X$295 \$1506 VSS VDD \$1507 INV_X1
X$296 \$1507 \$1295 VSS VDD \$1504 NAND2_X1
X$299 \$1519 \$1630 \$1294 VDD VSS \$1506 HA_X1
X$301 VSS \$1399 \$1519 \$1400 \$1645 \$1516 VDD FA_X1
X$302 VSS \$1376 \$1516 \$1396 \$1514 \$1512 VDD FA_X1
X$304 \$1513 VSS VDD \$1514 INV_X1
X$308 \$1394 VSS VDD \$1189 INV_X1
X$310 \$1384 VSS VDD \$1307 INV_X1
X$311 \$1377 \$1296 \$1387 VDD VSS \$1394 HA_X1
X$312 \$1746 \$1387 \$1181 VDD VSS \$1088 HA_X1
X$313 \$1378 \$1297 \$1379 VDD VSS \$1298 HA_X1
X$324 \$1510 \$1637 \$1180 VDD VSS \$1384 HA_X1
X$328 \$1379 \$1747 VSS VDD \$1508 NAND2_X1
X$350 \$4892 \$4896 \$5115 VDD VSS \$5304 HA_X1
X$351 \$4728 VSS VDD \$4071 CLKBUF_X1
X$352 \$5306 VSS VDD \$4890 CLKBUF_X1
X$353 \$5115 VSS VDD \$4984 INV_X1
X$355 \$4886 \$4731 \$5109 VDD VSS \$4883 HA_X1
X$356 \$5100 VSS VDD \$5101 CLKBUF_X1
X$357 \$4641 VSS VDD \$5552 INV_X1
X$358 \$5292 VSS VDD \$4877 CLKBUF_X1
X$361 VSS \$4075 \$I100157 \$5090 \$5094 \$4734 VDD DFFR_X1
X$366 \$5101 VSS VDD \$5116 CLKBUF_X1
X$367 \$4983 VSS VDD \$4895 CLKBUF_X1
X$368 VSS \$4984 \$5596 \$5302 \$4732 \$4729 VDD FA_X1
X$369 \$4074 \$5109 \$5303 VDD VSS \$5297 HA_X1
X$373 \$5090 VSS VDD \$5100 CLKBUF_X1
X$376 \$5288 VSS VDD \$5096 CLKBUF_X1
X$377 \$5286 VSS VDD \$4874 CLKBUF_X1
X$383 \$4738 \$5212 VDD VSS \$4988 XNOR2_X1
X$384 \$4988 \$5408 VDD VSS \$4538 XNOR2_X1
X$389 VSS \$5213 \$4735 \$4858 \$4738 \$5077 VDD FA_X1
X$391 VSS \$4992 \$5077 \$4991 \$4990 \$5214 VDD FA_X1
X$393 \$4736 VSS VDD \$4990 INV_X1
X$394 \$4991 VSS VDD \$4625 INV_X1
X$399 VSS \$4994 \$4850 \$4740 \$5059 \$4736 VDD FA_X1
X$406 \$4993 VSS VDD \$5516 INV_X1
X$407 \$4380 \$2609 VSS VDD \$4993 NAND2_X1
X$409 VSS \$4997 \$4838 \$4741 \$4609 \$4828 VDD FA_X1
X$411 \$4307 \$1743 VSS VDD \$4828 NAND2_X1
X$415 \$2606 \$1764 VSS VDD \$4997 NAND2_X1
X$418 \$4744 VSS VDD \$4546 INV_X1
X$423 VSS \$5052 \$4744 \$4747 \$5252 \$5217 VDD FA_X1
X$424 \$4746 VSS VDD \$5217 INV_X1
X$425 \$2371 \$2251 VSS VDD \$4746 NAND2_X1
X$426 \$4747 VSS VDD \$4181 INV_X1
X$431 \$5218 VSS VDD \$5052 INV_X1
X$432 \$4380 \$1904 VSS VDD \$5218 NAND2_X1
X$434 \$1902 \$4085 VSS VDD \$5252 NOR2_X1
X$437 VSS \$5000 \$I100132 \$5246 \$5423 \$3947 VDD DFFR_X1
X$438 VSS \$5000 \$I100352 \$2084 \$5032 \$3947 VDD DFFR_X1
X$440 \$5030 VSS VDD \$4582 CLKBUF_X1
X$441 \$4373 VSS VDD \$4361 CLKBUF_X1
X$444 \$5240 VSS VDD \$5002 CLKBUF_X1
X$445 \$5241 VSS VDD \$5240 CLKBUF_X1
X$446 \$5001 VSS VDD \$5219 CLKBUF_X1
X$447 \$5002 VSS VDD \$5001 CLKBUF_X1
X$448 \$5219 VSS VDD \$5032 CLKBUF_X1
X$450 \$4577 VSS VDD \$5026 CLKBUF_X1
X$451 \$5028 VSS VDD \$4780 CLKBUF_X1
X$452 \$5026 VSS VDD \$5028 CLKBUF_X1
X$454 VSS \$4552 \$I100477 \$5004 \$5220 \$3947 VDD DFFR_X1
X$455 \$5005 VSS VDD \$5006 CLKBUF_X1
X$456 \$4756 VSS VDD \$4758 CLKBUF_X1
X$457 \$4757 VSS VDD \$4756 CLKBUF_X1
X$458 \$4758 VSS VDD \$4772 CLKBUF_X1
X$459 \$4557 VSS VDD \$4759 CLKBUF_X1
X$460 \$4760 VSS VDD \$4762 CLKBUF_X1
X$470 \$4317 VSS VDD \$4097 CLKBUF_X1
X$475 \$5004 VSS VDD \$5005 CLKBUF_X1
X$476 \$5006 VSS VDD \$4757 CLKBUF_X1
X$488 \$3508 VSS VDD \$4344 CLKBUF_X1
X$489 \$4583 VSS VDD \$3908 CLKBUF_X1
X$492 \$4584 VSS VDD \$4249 CLKBUF_X1
X$493 \$4688 VSS VDD \$4251 CLKBUF_X1
X$495 \$1692 VSS VDD \$I98965 CLKBUF_X3
X$496 \$4252 VSS VDD \$4254 CLKBUF_X1
X$497 \$4360 VSS VDD \$4036 CLKBUF_X1
X$498 \$3909 VSS VDD \$4360 CLKBUF_X1
X$499 \$4364 VSS VDD \$4592 CLKBUF_X1
X$500 \$4592 VSS VDD \$4255 CLKBUF_X1
X$501 \$4256 VSS VDD \$4492 CLKBUF_X1
X$502 \$4257 VSS VDD \$4364 CLKBUF_X1
X$503 \$4157 VSS VDD \$4597 CLKBUF_X1
X$504 \$4367 VSS VDD \$4366 CLKBUF_X1
X$505 \$4597 VSS VDD \$4367 CLKBUF_X1
X$506 \$4370 VSS VDD \$4493 CLKBUF_X1
X$507 \$4601 VSS VDD \$4372 CLKBUF_X1
X$508 \$4494 VSS VDD \$3985 CLKBUF_X1
X$509 \$4377 VSS VDD \$4040 CLKBUF_X1
X$510 \$4041 VSS VDD \$4601 CLKBUF_X1
X$511 \$4042 VSS VDD \$4495 CLKBUF_X1
X$512 \$4383 VSS VDD \$4605 CLKBUF_X1
X$513 \$4605 VSS VDD \$4606 CLKBUF_X1
X$514 \$4606 VSS VDD \$4384 CLKBUF_X1
X$515 \$4260 VSS VDD \$I94706 CLKBUF_X1
X$516 \$4604 VSS VDD \$4382 CLKBUF_X1
X$517 VSS \$4260 \$I100223 \$4613 \$4262 \$3833 VDD DFFR_X1
X$518 VSS \$3628 \$I100515 \$4048 \$4617 \$3833 VDD DFFR_X1
X$519 VSS \$3628 \$I100482 \$4266 \$4412 \$3833 VDD DFFR_X1
X$520 VSS \$4506 \$4648 \$I87012 \$4416 \$3833 VDD DFFR_X1
X$521 VSS \$4510 \$I100242 \$4640 \$4268 \$3833 VDD DFFR_X1
X$522 VSS \$4510 \$4420 \$I87156 \$4269 \$3833 VDD DFFR_X1
X$523 \$4648 VSS VDD \$4422 CLKBUF_X1
X$536 VSS \$4480 \$I99915 \$4686 \$4765 \$3006 VDD DFFR_X1
X$537 \$4769 VSS VDD \$4323 CLKBUF_X1
X$539 VSS \$4480 \$I100151 \$4485 \$4245 \$3006 VDD DFFR_X1
X$541 \$4331 VSS VDD \$4484 CLKBUF_X1
X$542 \$4485 VSS VDD \$4330 CLKBUF_X1
X$543 \$4776 VSS VDD \$4562 CLKBUF_X1
X$544 \$4487 VSS VDD \$4776 CLKBUF_X1
X$546 VSS \$4480 \$I100401 \$4248 \$4562 \$3006 VDD DFFR_X1
X$547 \$4687 VSS VDD \$4782 CLKBUF_X1
X$548 \$4248 VSS VDD \$4573 CLKBUF_X1
X$549 VSS \$4944 \$I99926 \$4576 \$4782 \$1304 VDD DFFR_X1
X$550 \$4576 VSS VDD \$4578 CLKBUF_X1
X$551 \$4789 VSS VDD \$4790 CLKBUF_X1
X$554 \$4488 VSS VDD \$4490 CLKBUF_X1
X$555 \$4489 VSS VDD \$4488 CLKBUF_X1
X$556 \$4490 VSS VDD \$5037 CLKBUF_X1
X$557 \$5041 VSS VDD \$4795 CLKBUF_X1
X$559 \$5034 VSS VDD \$4491 CLKBUF_X1
X$560 VSS \$4944 \$I99925 \$4689 \$4491 \$1304 VDD DFFR_X1
X$561 \$2886 VSS VDD \$1692 CLKBUF_X3
X$565 \$4492 VSS VDD \$4257 CLKBUF_X1
X$568 \$3914 VSS VDD \$4037 CLKBUF_X1
X$571 \$4493 VSS VDD \$4494 CLKBUF_X1
X$572 \$4495 VSS VDD \$4497 CLKBUF_X1
X$573 VSS \$4260 \$I99868 \$4822 \$4497 \$3833 VDD DFFR_X1
X$574 \$4613 VSS VDD \$4045 CLKBUF_X1
X$575 \$4829 VSS VDD \$4044 CLKBUF_X1
X$576 \$4392 VSS VDD \$4400 CLKBUF_X1
X$577 \$4500 VSS VDD \$4501 CLKBUF_X1
X$578 \$4502 VSS VDD \$4697 CLKBUF_X1
X$579 \$4696 VSS VDD \$4837 CLKBUF_X1
X$581 \$4835 VSS VDD \$4846 CLKBUF_X1
X$582 \$191 VSS VDD \$3628 CLKBUF_X3
X$583 \$4834 VSS VDD \$4854 CLKBUF_X1
X$584 VSS \$3628 \$I99911 \$4052 \$4046 \$3833 VDD DFFR_X1
X$586 \$4857 VSS VDD \$5295 CLKBUF_X1
X$587 \$4856 VSS VDD \$4857 CLKBUF_X1
X$588 \$4861 VSS VDD \$4700 CLKBUF_X1
X$589 \$5298 VSS VDD \$4866 CLKBUF_X1
X$590 \$4866 VSS VDD \$4864 CLKBUF_X1
X$591 \$5099 VSS VDD \$4861 CLKBUF_X1
X$592 \$4855 VSS VDD \$4630 CLKBUF_X1
X$593 \$4265 VSS VDD \$4624 CLKBUF_X1
X$595 \$4507 VSS VDD \$4875 CLKBUF_X1
X$596 \$4870 VSS VDD \$4702 CLKBUF_X1
X$597 \$4508 VSS VDD \$4268 CLKBUF_X1
X$601 \$4878 VSS VDD \$4882 CLKBUF_X1
X$602 \$4640 VSS VDD \$4878 CLKBUF_X1
X$603 \$4647 VSS VDD \$4269 CLKBUF_X1
X$604 \$4882 VSS VDD \$4705 CLKBUF_X1
X$605 \$4706 VSS VDD \$4647 CLKBUF_X1
X$607 VSS \$4510 \$I99884 \$5192 \$33 \$45 VDD DFFR_X1
X$609 \$4025 VSS VDD \$5329 CLKBUF_X1
X$612 \$3923 VSS VDD \$4707 CLKBUF_X1
X$616 \$4271 \$4709 \$3165 VDD VSS \$3415 HA_X1
X$618 \$4057 \$4654 \$4513 \$4434 VSS VDD \$4432 NAND4_X1
X$620 \$5119 \$4894 \$4055 VDD VSS \$4710 HA_X1
X$621 \$3415 \$4055 VSS VDD \$4654 NAND2_X1
X$623 VSS \$33 \$20 \$4515 \$4901 VDD AOI21_X4
X$625 \$4432 \$4274 VDD VSS \$4665 XNOR2_X1
X$626 \$4515 \$4901 VSS VDD \$2052 NAND2_X1
X$628 \$4665 VSS VDD \$4671 CLKBUF_X1
X$633 \$4917 \$4712 \$4671 VSS \$4515 VDD NAND3_X4
X$635 \$4714 \$4677 VSS \$4712 VDD NAND2_X4
X$636 \$4674 VSS VDD \$5534 CLKBUF_X1
X$637 \$4223 VSS VDD \$4674 CLKBUF_X1
X$639 \$4059 VSS VDD \$4713 CLKBUF_X1
X$640 \$4449 \$4277 VSS VDD \$4677 NAND2_X2
X$645 \$4681 \$4277 \$4449 VSS \$4917 VDD NAND3_X4
X$646 \$4714 VSS VDD \$4681 INV_X1
X$649 \$4517 VSS VDD \$5554 CLKBUF_X1
X$652 \$4460 VSS VDD \$4680 CLKBUF_X1
X$654 \$4673 \$4282 VSS VDD \$4683 XOR2_X1
X$655 \$4468 \$4281 \$4669 VSS \$4673 VDD AOI21_X1
X$657 \$4683 VSS VDD \$4717 INV_X1
X$659 \$4669 \$4281 VDD VSS \$5348 XNOR2_X1
X$662 \$4468 \$4282 VSS VDD \$4518 NAND2_X1
X$663 \$4518 \$4519 \$4935 VSS VDD \$4974 NAND3_X1
X$664 \$4282 \$4281 \$4522 VSS VDD \$4935 NAND3_X1
X$665 \$4667 \$4283 \$4523 VDD VSS \$4524 HA_X1
X$670 \$4718 \$4719 VSS VDD \$4669 NAND2_X1
X$673 \$4524 VSS VDD \$4718 INV_X1
X$675 \$4241 VSS VDD \$5401 CLKBUF_X1
X$676 \$4284 VSS VDD \$4720 INV_X1
X$679 \$2442 VSS VDD \$5157 CLKBUF_X1
X$680 VSS \$4525 \$4527 \$1171 \$4915 \$327 VDD DFFR_X1
X$682 VSS \$4526 \$4238 \$4528 \$2560 \$4527 VDD FA_X1
X$683 VSS \$4285 \$4924 \$4529 \$4659 \$4467 VDD FA_X1
X$686 \$4924 VSS VDD \$5154 INV_X1
X$688 \$4652 VSS VDD \$4721 INV_X1
X$692 \$3607 VSS VDD \$5137 INV_X1
X$696 \$4914 \$4911 \$4530 VDD VSS \$4652 HA_X1
X$697 \$3180 \$1321 VSS VDD \$4912 NAND2_X1
X$698 \$940 \$3180 VDD VSS \$4914 AND2_X1
X$700 \$4287 \$1321 VSS VDD \$4532 NAND2_X1
X$702 \$4287 \$1494 VSS VDD \$4905 NAND2_X1
X$705 \$4289 VSS VDD \$4533 INV_X1
X$708 \$4532 VSS VDD \$4911 INV_X1
X$710 \$4912 VSS VDD \$4723 INV_X1
X$711 \$4905 VSS VDD \$4724 INV_X1
X$714 \$4533 \$4727 \$4725 VDD VSS \$4902 HA_X1
X$716 \$3180 \$1494 VSS VDD \$4898 NAND2_X1
X$717 \$4895 VSS VDD \$3589 CLKBUF_X1
X$718 \$4890 VSS VDD \$3997 CLKBUF_X1
X$719 \$4287 \$2184 VSS VDD \$4534 NAND2_X1
X$720 \$4294 VSS VDD \$4287 INV_X1
X$722 \$4898 VSS VDD \$4892 INV_X1
X$725 \$4534 VSS VDD \$4896 INV_X1
X$728 \$3180 \$2184 VSS VDD \$4535 NAND2_X1
X$729 \$4535 VSS VDD \$4886 INV_X1
X$730 \$4883 VSS VDD \$4729 INV_X1
X$731 \$4877 VSS VDD \$3936 CLKBUF_X1
X$732 \$4435 \$4436 \$4643 VDD VSS \$4536 HA_X1
X$735 \$4537 VSS VDD \$4431 CLKBUF_X1
X$741 \$4889 VSS VDD \$4731 INV_X1
X$743 \$4536 VSS VDD \$4732 INV_X1
X$745 \$4874 VSS VDD \$4537 CLKBUF_X1
X$749 \$5096 VSS VDD \$4638 CLKBUF_X1
X$755 \$4626 \$4868 VDD VSS \$4629 XNOR2_X1
X$756 \$4987 \$4867 VDD VSS \$4868 XNOR2_X1
X$758 \$4538 \$4629 VDD VSS \$4296 XNOR2_X1
X$760 \$4299 VSS VDD \$4297 INV_X1
X$762 VSS \$4623 \$4298 \$4079 \$4539 \$4300 VDD FA_X1
X$764 VSS \$4850 \$4623 \$4301 \$4625 \$4302 VDD FA_X1
X$767 VSS \$3038 \$4300 \$4302 \$3065 \$4413 VDD FA_X1
X$768 \$4740 VSS VDD \$4414 INV_X1
X$770 VSS \$4989 \$4867 \$4299 \$4627 \$4735 VDD FA_X1
X$773 \$4858 VSS VDD \$4539 INV_X1
X$774 \$4300 VSS VDD \$4627 INV_X1
X$776 \$4736 \$4300 VDD VSS \$4626 XNOR2_X1
X$778 \$4302 VSS VDD \$4738 INV_X1
X$782 \$4838 VSS VDD \$4303 INV_X1
X$784 \$4828 VSS VDD \$4542 INV_X1
X$785 \$4304 VSS VDD \$4839 INV_X1
X$787 \$4307 \$1764 VSS VDD \$4304 NAND2_X1
X$788 \$4609 VSS VDD \$4305 INV_X1
X$791 \$4307 \$1901 VSS VDD \$4609 NAND2_X1
X$795 VSS \$4595 \$4390 \$4309 \$4310 \$4308 VDD FA_X1
X$796 \$1735 \$4085 VSS VDD \$4310 NOR2_X1
X$799 \$3799 VSS VDD \$I69500 INV_X1
X$800 \$4582 VSS VDD \$4373 CLKBUF_X1
X$801 VSS \$4552 \$I100200 \$4580 \$4313 \$3947 VDD DFFR_X1
X$802 VSS \$4552 \$I100209 \$1901 \$4314 \$3947 VDD DFFR_X1
X$803 \$4098 VSS VDD \$4350 CLKBUF_X1
X$806 VSS \$4542 \$4413 \$4736 \$4305 \$4839 VDD FA_X1
X$808 VSS \$4546 \$4543 \$3805 \$4743 \$4741 VDD FA_X1
X$812 \$1904 \$2251 VSS VDD \$4548 NAND2_X1
X$813 \$4548 VSS VDD \$4308 INV_X1
X$814 \$4380 \$1902 VSS VDD \$4550 NAND2_X1
X$815 \$4550 VSS VDD \$4595 INV_X1
X$817 VSS \$5000 \$I100126 \$4810 \$5938 \$3947 VDD DFFR_X1
X$818 \$4810 VSS VDD \$4812 CLKBUF_X1
X$819 \$4812 VSS VDD \$5030 CLKBUF_X1
X$820 VSS \$4552 \$I99791 \$4779 \$5614 \$3947 VDD DFFR_X1
X$821 \$4580 VSS VDD \$4577 CLKBUF_X1
X$823 \$750 VSS VDD \$4552 CLKBUF_X3
X$824 \$4780 VSS VDD \$4345 CLKBUF_X1
X$825 \$4779 VSS VDD \$4315 CLKBUF_X1
X$826 VSS \$4552 \$I100108 \$4557 \$4772 \$3947 VDD DFFR_X1
X$827 \$4320 VSS VDD \$4319 CLKBUF_X1
X$828 \$4339 VSS VDD \$4102 CLKBUF_X1
X$830 VSS \$4552 \$I100402 \$1735 \$4558 \$3947 VDD DFFR_X1
X$839 \$4768 VSS VDD \$4761 CLKBUF_X1
X$840 \$4759 VSS VDD \$4760 CLKBUF_X1
X$841 \$4761 VSS VDD \$4558 CLKBUF_X1
X$842 \$4762 VSS VDD \$4768 CLKBUF_X1
X$855 \$2335 VSS VDD \$2725 CLKBUF_X1
X$856 \$2572 VSS VDD \$2770 CLKBUF_X1
X$857 \$2902 VSS VDD \$3045 CLKBUF_X1
X$858 \$2782 VSS VDD \$2781 CLKBUF_X1
X$859 \$2780 VSS VDD \$2902 CLKBUF_X1
X$860 VSS \$1593 \$I100218 \$2910 \$3152 \$1304 VDD DFFR_X1
X$861 \$2911 VSS VDD \$2727 CLKBUF_X1
X$863 \$2728 VSS VDD \$2729 CLKBUF_X1
X$864 \$2914 VSS VDD \$2913 CLKBUF_X1
X$865 \$3055 VSS VDD \$2914 CLKBUF_X1
X$867 \$2856 VSS VDD \$2730 CLKBUF_X1
X$868 \$2731 VSS VDD \$2856 CLKBUF_X1
X$869 \$2730 VSS VDD \$2492 CLKBUF_X1
X$870 VSS \$2862 \$I100330 \$2924 \$2860 \$1304 VDD DFFR_X1
X$871 \$2925 VSS VDD \$2801 CLKBUF_X1
X$872 \$3154 VSS VDD \$2800 CLKBUF_X1
X$873 \$3071 VSS VDD \$2931 CLKBUF_X1
X$875 \$2733 VSS VDD \$2863 CLKBUF_X1
X$876 \$2935 VSS VDD \$2733 CLKBUF_X1
X$877 \$2734 VSS VDD \$2933 CLKBUF_X1
X$878 \$2933 VSS VDD \$2935 CLKBUF_X1
X$879 \$2803 VSS VDD \$2641 CLKBUF_X1
X$891 \$2895 VSS VDD \$2898 CLKBUF_X1
X$892 \$3045 VSS VDD \$3151 CLKBUF_X1
X$893 \$3049 VSS VDD \$2911 CLKBUF_X1
X$894 \$2910 VSS VDD \$3049 CLKBUF_X1
X$895 \$2998 VSS VDD \$3052 CLKBUF_X1
X$896 VSS \$1593 \$I99841 \$3055 \$3052 \$1304 VDD DFFR_X1
X$898 \$3001 VSS VDD \$2860 CLKBUF_X1
X$899 \$2338 VSS VDD \$3001 CLKBUF_X1
X$900 \$2801 VSS VDD \$3002 CLKBUF_X1
X$901 \$2861 VSS VDD \$2925 CLKBUF_X1
X$902 \$3153 VSS VDD \$3062 CLKBUF_X1
X$903 \$2924 VSS VDD \$2861 CLKBUF_X1
X$904 VSS \$2862 \$I99843 \$3071 \$3062 \$1304 VDD DFFR_X1
X$905 VSS \$2862 \$I99847 \$3004 \$2863 \$3006 VDD DFFR_X1
X$906 VSS \$3074 \$I100067 \$3005 \$3076 \$3006 VDD DFFR_X1
X$907 \$2864 VSS VDD \$2735 CLKBUF_X1
X$911 \$2865 VSS VDD \$2736 CLKBUF_X1
X$915 VSS \$3074 \$I100016 \$3158 \$3081 \$3006 VDD DFFR_X1
X$917 \$2580 \$2579 VDD VSS \$3827 XNOR2_X1
X$919 \$2945 \$2647 \$2867 VSS \$2811 VDD AOI21_X1
X$920 \$2945 VSS VDD \$2740 INV_X1
X$921 \$2740 \$2868 VSS VDD \$2580 NAND2_X1
X$926 \$2134 VSS VDD \$2867 INV_X1
X$930 \$2949 \$2825 \$3008 VDD VSS \$2741 HA_X1
X$931 VSS \$2045 \$2823 \$2949 \$2953 \$2830 VDD FA_X1
X$935 \$2588 VSS VDD \$759 INV_X1
X$936 VSS \$2746 \$2953 \$3587 \$2415 \$2956 VDD FA_X1
X$940 \$2742 VSS VDD \$3391 INV_X1
X$943 \$3094 VSS VDD \$3009 INV_X1
X$946 \$3095 \$2743 \$3520 VDD VSS \$3094 HA_X1
X$949 VSS \$2313 \$2050 \$3010 \$3100 \$45 VDD DFFR_X1
X$950 \$3010 VSS VDD \$2536 INV_X1
X$951 \$2050 VSS VDD \$2834 CLKBUF_X1
X$959 \$3012 \$3165 VSS VDD \$2872 OR2_X1
X$962 \$2872 \$2965 VSS VDD \$1707 NAND2_X1
X$964 \$2975 VSS VDD \$2844 CLKBUF_X1
X$966 \$2979 VSS VDD \$2975 CLKBUF_X1
X$968 \$2981 VSS VDD \$2979 CLKBUF_X1
X$969 \$2313 VSS VDD \$I94592 CLKBUF_X1
X$970 \$191 VSS VDD \$2313 CLKBUF_X3
X$972 \$2210 VSS VDD \$3528 CLKBUF_X1
X$973 \$2854 VSS VDD \$2855 CLKBUF_X1
X$974 VSS \$2313 \$I100497 \$2713 \$3226 \$45 VDD DFFR_X1
X$975 VSS \$2347 \$I100462 \$3139 \$3138 \$45 VDD DFFR_X1
X$977 \$2348 VSS VDD \$2877 CLKBUF_X1
X$981 \$1874 VSS VDD \$3011 CLKBUF_X1
X$982 \$20 \$3111 \$3012 VSS \$3115 VDD AOI21_X1
X$983 \$3115 VSS VDD \$2965 CLKBUF_X1
X$986 \$3233 VSS VDD \$3121 CLKBUF_X1
X$987 VSS \$2313 \$I100109 \$3167 \$3014 \$45 VDD DFFR_X1
X$988 VSS \$2313 \$I100101 \$3441 \$3131 \$45 VDD DFFR_X1
X$989 VSS \$2313 \$I100080 \$3017 \$2750 \$45 VDD DFFR_X1
X$991 \$3139 VSS VDD \$3453 CLKBUF_X1
X$993 \$3144 VSS VDD \$3458 INV_X1
X$995 VSS \$2751 \$3144 \$3222 \$2015 \$3018 VDD FA_X1
X$996 VSS \$3019 \$3018 \$2850 \$2992 \$2994 VDD FA_X1
X$998 \$1719 VSS VDD \$2994 INV_X1
X$999 \$2879 \$458 VSS VDD \$2753 NAND2_X1
X$1000 VSS \$2984 \$2992 \$2755 \$2020 \$2840 VDD FA_X1
X$1001 \$1611 \$1321 VSS VDD \$2984 NAND2_X1
X$1002 \$2755 VSS VDD \$2836 INV_X1
X$1004 \$1718 VSS VDD \$3019 INV_X1
X$1007 \$3150 VSS VDD \$3467 CLKBUF_X1
X$1010 \$3216 VSS VDD \$3150 CLKBUF_X1
X$1013 \$2972 \$940 VSS VDD \$2840 NAND2_X1
X$1015 \$3022 VSS VDD \$2882 CLKBUF_X1
X$1017 \$3119 \$458 VSS VDD \$2560 NAND2_X1
X$1018 VSS \$2967 \$2835 \$3471 \$2758 \$2829 VDD FA_X1
X$1024 \$726 \$2359 VSS VDD \$3214 NAND2_X1
X$1026 \$1171 \$3030 VSS VDD \$3132 NAND2_X1
X$1029 \$2961 VSS VDD \$2706 CLKBUF_X1
X$1032 \$2959 VSS VDD \$2821 CLKBUF_X1
X$1035 \$2884 VSS VDD \$2885 CLKBUF_X1
X$1039 \$3210 VSS VDD \$2972 INV_X1
X$1040 \$1855 VSS VDD \$2961 CLKBUF_X1
X$1041 \$1130 VSS VDD \$2215 CLKBUF_X3
X$1042 \$3123 VSS VDD \$3491 CLKBUF_X1
X$1044 VSS \$2215 \$I99908 \$3123 \$3482 \$327 VDD DFFR_X1
X$1045 \$1130 VSS VDD \$I101758 INV_X4
X$1047 \$2886 VSS VDD \$1130 CLKBUF_X3
X$1049 \$2942 VSS VDD \$2817 CLKBUF_X1
X$1050 VSS \$1720 \$I100318 \$2942 \$2889 \$327 VDD DFFR_X1
X$1053 \$2926 VSS VDD \$2512 CLKBUF_X1
X$1054 \$2923 \$3032 \$2071 VDD VSS \$2503 HA_X1
X$1055 VSS \$1727 \$I100235 \$2808 \$2927 \$327 VDD DFFR_X1
X$1056 VSS \$1727 \$I100478 \$2926 \$3087 \$327 VDD DFFR_X1
X$1059 \$3108 VSS VDD \$3179 CLKBUF_X1
X$1060 \$3029 VSS VDD \$3119 INV_X1
X$1061 \$3030 \$3029 \$3291 VSS VDD \$3031 NOR3_X1
X$1062 \$2879 \$2759 VSS VDD \$3291 NAND2_X1
X$1064 \$3030 VSS VDD \$3032 INV_X1
X$1067 \$1720 VSS VDD \$I92597 CLKBUF_X1
X$1068 \$1130 VSS VDD \$1720 CLKBUF_X3
X$1069 \$3440 VSS VDD \$2813 CLKBUF_X1
X$1070 \$727 VSS VDD \$2692 CLKBUF_X1
X$1079 \$2921 \$3036 VDD VSS \$3087 XNOR2_X1
X$1080 \$2921 VSS VDD \$3037 INV_X1
X$1082 \$3080 \$2764 \$2603 VSS \$2921 VDD AOI21_X1
X$1083 \$2277 \$2764 VSS VDD \$2927 XOR2_X1
X$1088 \$3080 \$2764 \$2277 VSS \$3411 VDD AOI21_X1
X$1089 \$3077 \$3078 \$2764 VDD VSS \$3080 HA_X1
X$1092 \$3185 VSS VDD \$3077 INV_X1
X$1095 \$3200 VSS VDD \$2793 INV_X1
X$1098 \$2917 VSS VDD \$2648 INV_X1
X$1103 \$3075 VSS VDD \$3186 INV_X1
X$1106 VSS \$2765 \$3075 \$3070 \$3065 \$3038 VDD FA_X1
X$1107 \$3061 VSS VDD \$2369 INV_X1
X$1109 \$2609 \$1743 VSS VDD \$2894 NAND2_X1
X$1110 \$2894 VSS VDD \$2789 INV_X1
X$1113 \$3041 VSS VDD \$2778 INV_X1
X$1119 \$3070 VSS VDD \$3067 INV_X1
X$1121 VSS \$3059 \$2917 \$3061 \$3198 \$3298 VDD FA_X1
X$1123 \$3064 VSS VDD \$3040 INV_X1
X$1124 VSS \$3053 \$3059 \$3051 \$3195 \$3365 VDD FA_X1
X$1126 \$2907 \$3559 \$1928 VDD VSS \$2776 HA_X1
X$1142 \$1739 VSS VDD \$2092 CLKBUF_X1
X$1156 \$18416 VSS VDD \$18577 CLKBUF_X1
X$1158 \$18577 VSS VDD \$18576 CLKBUF_X1
X$1159 \$18576 VSS VDD \$18417 CLKBUF_X1
X$1161 \$18064 \$18493 VDD VSS \$18457 XNOR2_X1
X$1162 \$18493 VSS VDD \$18582 INV_X1
X$1163 \$18582 \$18064 \$18455 VDD \$18419 VSS OAI21_X1
X$1165 \$19051 VSS VDD \$17657 CLKBUF_X1
X$1170 \$18585 \$18617 \$18493 VDD VSS \$18420 HA_X1
X$1171 \$18420 VSS VDD \$18455 INV_X1
X$1173 VSS \$18589 \$18586 \$18288 \$18584 \$18421 VDD FA_X1
X$1175 \$18422 VSS VDD \$18589 INV_X1
X$1176 \$18494 VSS VDD \$18091 CLKBUF_X1
X$1177 VSS \$18386 \$18422 \$18382 \$18581 \$18423 VDD FA_X1
X$1179 \$18586 VSS VDD \$18585 INV_X1
X$1183 \$19166 VSS VDD \$17663 CLKBUF_X1
X$1184 \$18593 VSS VDD \$18584 INV_X1
X$1188 \$18699 VSS VDD \$18208 CLKBUF_X1
X$1189 \$18495 \$18597 \$18596 VDD VSS \$18619 HA_X1
X$1190 \$18594 VSS VDD \$18597 INV_X1
X$1193 \$18424 VSS VDD \$18425 INV_X1
X$1194 \$18426 VSS VDD \$18446 CLKBUF_X1
X$1195 \$16672 \$18628 VSS VDD \$18424 NAND2_X1
X$1199 \$16335 \$18628 VSS VDD \$18594 NAND2_X1
X$1202 \$18656 \$18562 \$18581 VDD VSS \$18654 HA_X1
X$1203 \$18429 VSS VDD \$18293 INV_X1
X$1205 \$15506 \$17559 VSS VDD \$18429 NAND2_X1
X$1208 \$18432 VSS VDD \$18500 INV_X1
X$1210 \$18260 \$16677 VSS VDD \$18432 NAND2_X1
X$1217 \$18624 \$16486 VSS VDD \$18499 NAND2_X1
X$1218 \$18499 VSS VDD \$18648 INV_X1
X$1219 \$18500 \$18648 \$18562 VDD VSS \$18626 HA_X1
X$1222 VSS \$18501 \$I100332 \$18503 \$18433 \$16907 VDD DFFR_X1
X$1225 \$18504 VSS VDD \$18436 INV_X1
X$1227 \$18436 \$18300 VSS VDD \$18628 NOR2_X2
X$1232 \$18095 \$18735 VDD VSS \$18502 XNOR2_X1
X$1233 \$18502 VSS VDD \$18433 CLKBUF_X1
X$1237 \$18100 VSS VDD \$18630 INV_X1
X$1238 \$18503 VSS VDD \$18504 CLKBUF_X1
X$1242 \$18506 \$18300 \$18708 VSS VDD NOR2_X4
X$1248 \$17411 VSS VDD \$18300 INV_X4
X$1252 \$18104 \$18304 \$18507 \$18437 VSS VDD \$18511 NAND4_X1
X$1272 \$18506 VSS VDD \$18520 INV_X1
X$1273 \$18520 \$18507 \$18437 VSS VDD \$18632 NAND3_X1
X$1275 \$18634 \$18511 \$18438 VDD VSS \$18508 OAI21_X2
X$1276 \$18508 VSS VDD \$18636 INV_X4
X$1296 \$17242 VSS VDD \$17115 CLKBUF_X1
X$1301 \$17295 VSS VDD \$16947 CLKBUF_X1
X$1303 \$17140 VSS VDD \$16862 CLKBUF_X1
X$1304 \$17142 VSS VDD \$17140 CLKBUF_X1
X$1305 VSS \$17372 \$I100190 \$17243 \$17299 \$12319 VDD DFFR_X1
X$1306 \$17304 VSS VDD \$17306 CLKBUF_X1
X$1307 \$17307 VSS VDD \$17304 CLKBUF_X1
X$1308 \$17306 VSS VDD \$17440 CLKBUF_X1
X$1309 \$17312 VSS VDD \$17311 CLKBUF_X1
X$1310 \$17311 VSS VDD \$17443 CLKBUF_X1
X$1311 \$13150 VSS VDD \$16461 CLKBUF_X3
X$1312 \$17378 VSS VDD \$17244 CLKBUF_X1
X$1313 \$17245 VSS VDD \$16653 CLKBUF_X1
X$1314 \$16866 VSS VDD \$17449 CLKBUF_X1
X$1315 \$17319 VSS VDD \$17052 CLKBUF_X1
X$1316 \$17321 VSS VDD \$17379 CLKBUF_X1
X$1317 \$17052 VSS VDD \$17324 CLKBUF_X1
X$1318 \$17323 VSS VDD \$17167 CLKBUF_X1
X$1319 \$17329 VSS VDD \$17321 CLKBUF_X1
X$1320 \$17460 VSS VDD \$16656 CLKBUF_X1
X$1321 \$17163 VSS VDD \$17323 CLKBUF_X1
X$1323 \$17333 VSS VDD \$17465 CLKBUF_X1
X$1324 \$17464 VSS VDD \$17333 CLKBUF_X1
X$1325 \$17054 VSS VDD \$17171 CLKBUF_X1
X$1326 VSS \$17247 \$17339 \$17350 \$17336 \$15672 VDD DFFR_X1
X$1327 \$17339 VSS VDD \$16469 INV_X1
X$1343 VSS \$17372 \$12525 \$17540 \$17371 \$15672 VDD DFFR_X1
X$1346 \$17541 VSS VDD \$17295 CLKBUF_X1
X$1347 \$17372 VSS VDD \$I101694 INV_X2
X$1348 \$17110 VSS VDD \$17372 CLKBUF_X3
X$1350 \$17301 VSS VDD \$17429 CLKBUF_X1
X$1351 \$17429 VSS VDD \$17299 CLKBUF_X1
X$1352 VSS \$17372 \$I100018 \$17591 \$16860 \$12319 VDD DFFR_X1
X$1354 \$17592 VSS VDD \$17597 CLKBUF_X1
X$1355 VSS \$17598 \$I100134 \$17720 \$17050 \$15672 VDD DFFR_X1
X$1357 \$17443 VSS VDD \$17378 CLKBUF_X1
X$1358 \$17244 VSS VDD \$17245 CLKBUF_X1
X$1359 \$17451 VSS VDD \$17156 CLKBUF_X1
X$1360 \$17440 VSS VDD \$17451 CLKBUF_X1
X$1362 \$17449 VSS VDD \$17319 CLKBUF_X1
X$1363 \$17110 VSS VDD \$I101750 INV_X4
X$1364 \$17324 VSS VDD \$17460 CLKBUF_X1
X$1365 \$17379 VSS VDD \$16868 CLKBUF_X1
X$1366 \$17167 VSS VDD \$17329 CLKBUF_X1
X$1369 \$17466 VSS VDD \$17472 CLKBUF_X1
X$1370 \$17055 VSS VDD \$17464 CLKBUF_X1
X$1371 \$17465 VSS VDD \$17466 CLKBUF_X1
X$1372 \$17056 VSS VDD \$16870 CLKBUF_X1
X$1373 \$17472 VSS VDD \$17474 CLKBUF_X1
X$1374 \$17474 VSS VDD \$17336 CLKBUF_X1
X$1376 \$16469 \$15168 VSS VDD \$18400 NAND2_X1
X$1379 \$15385 \$14852 VSS VDD \$17734 NAND2_X1
X$1383 \$17350 VSS VDD \$17486 CLKBUF_X1
X$1384 \$15168 \$15385 VDD VSS \$17060 AND2_X1
X$1393 \$17486 VSS VDD \$17627 CLKBUF_X1
X$1396 \$17350 \$13041 VSS VDD \$17384 NAND2_X1
X$1397 \$17384 VSS VDD \$17745 INV_X1
X$1398 \$16323 \$13098 VSS VDD \$17752 NAND2_X1
X$1400 \$17346 VSS VDD \$17186 CLKBUF_X1
X$1403 \$17248 VSS VDD \$17187 INV_X1
X$1404 \$17350 \$13178 VSS VDD \$17248 NAND2_X1
X$1409 \$16215 VSS VDD \$17386 CLKBUF_X1
X$1411 \$16877 VSS VDD \$17500 INV_X1
X$1413 VSS \$17353 \$17352 \$17197 \$17249 \$17194 VDD FA_X1
X$1417 \$17385 VSS VDD \$17065 INV_X1
X$1420 VSS \$17250 \$17823 \$17502 \$17636 \$17500 VDD FA_X1
X$1421 \$17352 VSS VDD \$17250 INV_X1
X$1424 \$17017 \$17066 \$17251 VDD VSS \$17355 HA_X1
X$1430 \$17502 VSS VDD \$17066 INV_X1
X$1431 \$17355 \$17251 \$17387 VSS \$18162 VDD AOI21_X1
X$1432 \$17387 \$17251 VDD VSS \$17758 XNOR2_X1
X$1435 \$17509 VSS VDD \$17508 CLKBUF_X1
X$1437 \$17358 VSS VDD \$17360 CLKBUF_X1
X$1438 \$17514 VSS VDD \$17358 CLKBUF_X1
X$1439 \$17360 VSS VDD \$17069 CLKBUF_X1
X$1440 \$17070 VSS VDD \$17363 CLKBUF_X1
X$1441 \$17363 VSS VDD \$17071 CLKBUF_X1
X$1442 \$17072 VSS VDD \$17032 CLKBUF_X1
X$1444 \$16666 VSS VDD \$17073 CLKBUF_X1
X$1445 \$17365 VSS VDD \$17041 CLKBUF_X3
X$1446 VSS \$17041 \$I100251 \$17390 \$17367 \$15181 VDD DFFR_X1
X$1447 \$17391 VSS VDD \$17369 CLKBUF_X1
X$1448 \$17369 VSS VDD \$17211 CLKBUF_X1
X$1450 \$17078 VSS VDD \$17079 CLKBUF_X1
X$1451 VSS \$16890 \$I100496 \$17255 \$17657 \$15181 VDD DFFR_X1
X$1453 \$17256 VSS VDD \$17229 CLKBUF_X1
X$1454 \$17359 VSS VDD \$17362 CLKBUF_X1
X$1455 \$17362 VSS VDD \$17233 CLKBUF_X1
X$1456 \$17257 VSS VDD \$17357 CLKBUF_X1
X$1457 \$17357 VSS VDD \$17232 CLKBUF_X1
X$1458 \$17229 VSS VDD \$17236 CLKBUF_X1
X$1461 \$17258 VSS VDD \$17234 INV_X1
X$1463 \$17798 VSS VDD \$15926 CLKBUF_X1
X$1465 \$17617 \$17616 \$17219 VDD VSS \$17261 HA_X1
X$1469 \$16343 \$17398 \$17263 VDD VSS \$17262 HA_X1
X$1470 \$17263 VSS VDD \$17205 CLKBUF_X1
X$1472 \$17401 \$17205 VDD VSS \$17265 XNOR2_X1
X$1473 \$17265 VSS VDD \$17202 CLKBUF_X1
X$1476 \$17263 \$17089 VSS VDD \$17348 NAND2_X1
X$1478 \$17267 VSS VDD \$17268 INV_X1
X$1479 \$17089 VSS VDD \$17487 CLKBUF_X1
X$1481 \$17175 VSS VDD \$17344 INV_X1
X$1482 \$17090 \$17268 \$17338 VSS VDD \$17270 NAND3_X1
X$1483 \$17089 \$16905 \$17179 VSS VDD \$17338 NAND3_X1
X$1486 \$17388 VSS VDD \$17509 CLKBUF_X1
X$1487 \$17508 VSS VDD \$17514 CLKBUF_X1
X$1491 \$17041 VSS VDD \$I92732 CLKBUF_X1
X$1493 \$17074 VSS VDD \$17075 CLKBUF_X1
X$1495 \$17209 VSS VDD \$17076 CLKBUF_X1
X$1498 \$17517 VSS VDD \$16330 CLKBUF_X1
X$1501 \$17520 VSS VDD \$17519 CLKBUF_X1
X$1502 \$17519 VSS VDD \$17391 CLKBUF_X1
X$1503 \$17390 VSS VDD \$17520 CLKBUF_X1
X$1506 \$17525 VSS VDD \$17524 CLKBUF_X1
X$1507 \$17524 VSS VDD \$17522 CLKBUF_X1