* Extracted by KLayout on : 28/03/2026 17:45

.SUBCKT tf_lms_sv err[7] err[6] err[5] err[4] err[3] err[1] err[0] adapt_en VSS
+ VDD dxin[0] dxin[1] dxin[3] dxin[4] dxin[2] dxin[5] dxin[6] dxin[7] clock
+ yout[0] yout[2] yout[6] yout[1] yout[5] yout[7] yout[3] yout[4] err[2] xin[6]
+ xin[1] xin[4] xin[7] xin[0] xin[5] xin[2] reset xin[3]
X$2 \$19 VSS VDD err[7] BUF_X1
X$8 \$32 VSS VDD err[6] BUF_X1
X$14 \$66 VSS VDD err[5] BUF_X1
X$20 \$111 VSS VDD err[4] BUF_X1
X$27 \$376 VSS VDD err[3] BUF_X1
X$33 \$204 VSS VDD err[1] BUF_X1
X$39 \$10 VSS VDD err[0] BUF_X1
X$44 adapt_en VSS VDD \$28 BUF_X1
X$49 \$6935 \$7689 \$7681 VDD VSS \$7849 HA_X1
X$54 \$7512 VSS VDD \$7676 INV_X1
X$56 \$5181 \$6233 VSS VDD \$7758 NAND2_X1
X$58 \$7758 VSS VDD \$8011 INV_X1
X$63 \$5579 \$5721 VSS VDD \$7760 NAND2_X1
X$64 \$7760 VSS VDD \$8013 INV_X1
X$67 \$7353 VSS VDD \$7850 INV_X1
X$70 \$5579 \$6233 VSS VDD \$7761 NAND2_X1
X$71 \$7761 VSS VDD \$7782 INV_X1
X$74 \$8010 VSS VDD \$8004 INV_X1
X$76 \$7782 \$8004 \$8002 VDD VSS \$8005 HA_X1
X$77 \$8002 VSS VDD \$7996 INV_X1
X$79 \$7673 \$7513 \$7989 VDD VSS \$7851 HA_X1
X$81 \$7676 \$7672 \$7669 VDD VSS \$7991 HA_X1
X$82 \$7579 \$7515 VSS VDD \$8038 NAND2_X1
X$83 \$7234 \$7669 \$7639 VDD VSS \$7852 HA_X1
X$87 \$7991 VSS VDD \$8133 INV_X1
X$90 \$7989 \$7639 \$7516 VDD VSS \$7853 HA_X1
X$92 VSS \$7666 \$7640 \$8228 \$7969 \$7667 VDD FA_X1
X$96 \$7969 \$7640 VDD VSS \$7762 XNOR2_X1
X$97 \$7762 \$7517 VDD VSS \$7855 XNOR2_X1
X$99 VSS \$7518 \$8138 \$7968 \$7969 \$7571 VDD FA_X1
X$101 \$7641 VSS VDD \$7969 INV_X1
X$102 VSS \$7443 \$7857 \$7764 \$7522 \$7641 VDD FA_X1
X$106 \$7237 \$7521 VDD VSS \$7779 XNOR2_X1
X$107 \$1762 VSS VDD \$5707 CLKBUF_X3
X$111 \$7764 VSS VDD \$8079 INV_X1
X$114 \$7562 VSS VDD \$7858 INV_X1
X$116 \$7652 VSS VDD \$7651 INV_X1
X$117 VSS \$7424 \$7955 \$7652 \$7642 \$7655 VDD FA_X1
X$121 \$7524 \$7651 \$7765 VDD VSS \$7934 HA_X1
X$126 VSS \$7105 \$I72893 \$7645 \$7647 \$5920 VDD DFFR_X1
X$129 \$7955 VSS VDD \$7859 INV_X1
X$133 \$7934 \$7765 \$7644 VSS \$7778 VDD AOI21_X1
X$134 \$7934 \$7765 \$7774 VSS \$8042 VDD AOI21_X1
X$137 \$7644 \$7765 VSS VDD \$7773 XOR2_X1
X$139 VSS \$7105 \$I72519 \$7861 \$7773 \$5920 VDD DFFR_X1
X$141 \$7105 VSS VDD CLKBUF_X1
X$145 \$7375 \$7373 \$7374 VSS \$7770 VDD AOI21_X1
X$156 \$7375 VSS VDD \$7864 INV_X1
X$159 \$7375 \$7373 \$7376 VSS \$7867 VDD AOI21_X1
X$173 \$7412 \$7411 \$7480 VDD VSS \$7327 HA_X1
X$176 \$7415 VSS VDD \$7412 INV_X1
X$177 VSS \$7417 \$7415 \$7329 \$7414 \$7328 VDD FA_X1
X$179 VSS \$7199 \$7483 \$7484 \$7198 \$7332 VDD FA_X1
X$182 \$7333 VSS VDD \$7558 INV_X1
X$184 \$7422 VSS VDD \$7488 INV_X1
X$188 \$7203 VSS VDD \$7563 INV_X1
X$191 VSS \$7334 \$7491 \$7432 \$7430 \$7431 VDD FA_X1
X$192 \$7204 VSS VDD \$7334 INV_X1
X$196 \$7404 \$7195 VDD VSS \$7674 XNOR2_X1
X$198 \$7324 VSS VDD \$I74130 INV_X2
X$201 \$7543 \$7326 VDD VSS \$7930 XNOR2_X1
X$203 \$7326 \$7405 \$7197 VDD \$7404 VSS OAI21_X1
X$209 \$7480 VSS VDD \$7545 INV_X1
X$210 \$7545 \$7678 \$7548 VDD \$7543 VSS OAI21_X1
X$211 \$7327 \$7480 \$7549 VSS \$7405 VDD AOI21_X1
X$212 \$7481 VSS VDD \$7549 INV_X1
X$213 \$7327 VSS VDD \$7548 INV_X1
X$216 \$7329 VSS VDD \$7330 INV_X1
X$217 \$7331 \$7330 \$7482 VDD VSS \$7553 HA_X1
X$219 \$7483 VSS VDD \$7331 INV_X1
X$223 \$7484 VSS VDD \$7555 INV_X1
X$224 \$7558 \$7555 \$7485 VDD VSS \$7487 HA_X1
X$228 \$7490 \$7488 \$7560 VDD VSS \$7489 HA_X1
X$230 \$7202 VSS VDD \$7490 INV_X1
X$234 \$7491 VSS VDD \$7627 INV_X1
X$239 \$7432 VSS VDD \$7566 INV_X1
X$241 \$7207 \$7156 \$7568 VDD VSS \$7437 HA_X1
X$242 VSS \$7437 \$7434 \$7711 \$7435 \$7206 VDD FA_X1
X$248 VSS \$7218 \$8229 \$7462 \$7461 \$7459 VDD FA_X1
X$252 VSS \$7444 \$7628 \$7835 \$7568 \$7492 VDD FA_X1
X$253 \$7493 VSS VDD \$7492 INV_X1
X$257 \$7496 \$7495 \$7494 VDD VSS \$7444 HA_X1
X$258 \$7209 VSS VDD \$7496 INV_X1
X$260 \$7168 VSS VDD \$7629 INV_X1
X$264 \$6175 \$5437 VSS VDD \$7630 NAND2_X1
X$265 \$6175 \$5905 VSS VDD \$7498 NAND2_X1
X$269 \$5861 \$5437 VSS VDD \$7499 NAND2_X1
X$272 \$5861 \$5905 VSS VDD \$7337 NAND2_X1
X$273 \$7337 VSS VDD \$7583 INV_X1
X$274 \$5437 \$5181 VSS VDD \$7338 NAND2_X1
X$275 \$7338 VSS VDD \$7635 INV_X1
X$280 VSS \$7503 \$7502 \$7505 \$7339 \$7589 VDD FA_X1
X$281 \$7462 VSS VDD \$7339 INV_X1
X$283 \$6175 \$6180 VSS VDD \$7713 NAND2_X1
X$287 \$5579 \$6732 VSS VDD \$7601 NAND2_X1
X$290 \$5181 \$6180 VSS VDD \$7346 NAND2_X1
X$291 \$7346 VSS VDD \$7472 INV_X1
X$294 \$6175 \$6732 VSS VDD \$7592 NAND2_X1
X$295 \$5861 \$6732 VSS VDD \$7508 NAND2_X1
X$299 \$5727 \$6562 VSS VDD \$7342 NAND2_X1
X$300 \$7342 VSS VDD \$7509 INV_X1
X$302 \$7601 VSS VDD \$7603 INV_X1
X$303 VSS \$7603 \$7701 \$7607 \$7509 \$7472 VDD FA_X1
X$304 \$7347 VSS VDD \$7470 INV_X1
X$305 \$5437 \$5371 VSS VDD \$7347 NAND2_X1
X$306 \$5905 \$4940 VSS VDD \$7349 NAND2_X1
X$307 \$7349 VSS VDD \$7469 INV_X1
X$309 \$7469 \$7470 \$7689 VDD VSS \$7350 HA_X1
X$315 VSS \$7350 \$7699 \$8269 \$7608 \$7607 VDD FA_X1
X$317 \$5727 \$6180 VSS VDD \$7355 NAND2_X1
X$318 VSS \$7228 \$7351 \$8241 \$7352 \$7354 VDD FA_X1
X$321 \$6180 \$4940 VSS VDD \$7588 NAND2_X1
X$323 \$5371 \$6180 \$7452 VDD VSS \$7358 AND3_X1
X$324 \$7359 \$7233 \$7452 VDD VSS \$7360 HA_X1
X$330 \$5905 \$5371 VSS VDD \$7353 NAND2_X1
X$332 \$7355 VSS VDD \$7354 INV_X1
X$336 \$6732 \$5371 VSS VDD \$7595 NAND2_X1
X$337 \$5727 \$5721 VSS VDD \$8010 NAND2_X1
X$341 \$7595 VSS VDD \$7673 INV_X1
X$343 \$6233 \$5727 VSS VDD \$7512 NAND2_X1
X$346 \$7588 VSS VDD \$7513 INV_X1
X$347 \$7585 VSS VDD \$7672 INV_X1
X$350 \$7514 \$7360 VSS VDD \$7515 NAND2_X1
X$351 \$7358 \$7516 \$7514 VDD VSS \$7574 HA_X1
X$352 \$7574 VSS VDD \$7579 INV_X1
X$354 VSS \$7451 \$8233 \$7666 \$7361 \$6734 VDD FA_X1
X$356 VSS \$7450 \$7571 \$7519 \$7361 \$7447 VDD FA_X1
X$360 \$7238 VSS VDD \$7441 INV_X1
X$363 VSS \$7236 \$7667 \$7518 \$7361 \$6941 VDD FA_X1
X$364 \$7237 VSS VDD \$7361 INV_X1
X$367 \$7519 VSS VDD \$7522 INV_X1
X$368 VSS \$6188 \$7521 \$7641 \$6005 \$7442 VDD FA_X1
X$370 VSS \$6188 \$7562 \$7556 \$6005 \$7364 VDD FA_X1
X$371 VSS \$6188 \$7523 \$7428 \$6005 \$7426 VDD FA_X1
X$372 VSS \$7433 \$7365 \$7642 \$7441 \$7439 VDD FA_X1
X$373 \$7428 VSS VDD \$7367 INV_X1
X$376 \$7556 VSS VDD \$7439 INV_X1
X$379 \$7523 VSS VDD \$7655 INV_X1
X$381 VSS \$7097 \$7368 \$7406 \$7416 \$7408 VDD FA_X1
X$383 \$7406 VSS VDD \$7403 INV_X1
X$387 \$7368 VSS VDD \$7524 INV_X1
X$391 \$7239 \$7403 \$7128 VDD VSS \$7402 HA_X1
X$394 \$7128 VSS VDD \$7551 INV_X1
X$395 \$7551 \$7525 \$7370 VDD \$7774 VSS OAI21_X1
X$397 \$7402 VSS VDD \$7370 INV_X1
X$401 \$7525 \$7128 VDD VSS \$7647 XNOR2_X1
X$404 VSS \$7105 \$I72278 \$7769 \$7255 \$5920 VDD DFFR_X1
X$406 \$5707 VSS VDD \$7105 CLKBUF_X3
X$408 \$7372 \$7383 \$7373 VDD VSS \$7375 HA_X1
X$410 \$6298 \$7379 VDD VSS \$7383 AND2_X1
X$420 \$7376 \$7373 VSS VDD \$7533 XOR2_X1
X$422 VSS \$7105 \$I72500 \$7379 \$7533 \$5920 VDD DFFR_X1
X$442 \$7798 \$7827 \$7922 VDD VSS \$7927 HA_X1
X$444 \$8186 \$7922 \$7829 VDD VSS \$8086 HA_X1
X$445 VSS \$8086 \$8026 \$7735 \$8350 \$7927 VDD FA_X1
X$450 VSS \$8027 \$I72870 \$8028 \$7935 \$7479 VDD DFFR_X1
X$455 \$8182 VSS VDD \$8024 INV_X1
X$456 \$8024 \$8184 \$7827 VDD VSS \$8414 HA_X1
X$459 \$8026 \$8108 \$8085 VDD VSS \$8193 HA_X1
X$460 \$8193 \$8085 \$7830 VSS \$8109 VDD AOI21_X1
X$464 \$8196 \$8201 \$8256 VDD VSS \$8197 HA_X1
X$465 \$8197 VSS VDD \$8258 INV_X1
X$469 \$8111 \$8110 VDD VSS \$8112 XNOR2_X1
X$470 VSS \$8027 \$I72325 \$8114 \$8112 \$7479 VDD DFFR_X1
X$473 VSS \$8027 \$I72305 \$8115 \$8204 \$7479 VDD DFFR_X1
X$474 VSS \$8027 \$I72484 \$8117 \$8207 \$7479 VDD DFFR_X1
X$477 \$7794 \$7950 VSS VDD \$8097 NAND2_X1
X$478 \$8097 \$7625 VDD VSS \$8573 XNOR2_X1
X$481 \$8099 \$7742 VDD VSS \$8362 XNOR2_X1
X$483 \$8099 VSS VDD \$7743 INV_X1
X$485 \$7742 \$7952 VSS VDD \$7950 NAND2_X1
X$489 \$7832 \$8095 VSS VDD \$8213 NAND2_X1
X$490 \$7832 VSS VDD \$7833 INV_X1
X$491 \$8030 \$7833 \$7834 VDD \$7952 VSS OAI21_X1
X$492 \$8093 \$7833 \$7834 VDD \$8118 VSS OAI21_X1
X$493 \$7959 \$7835 \$8095 VDD VSS \$7960 HA_X1
X$494 \$7960 VSS VDD \$8093 INV_X1
X$497 \$7966 \$7836 \$8032 VDD VSS \$8120 HA_X1
X$500 \$7838 \$7839 \$8222 VDD VSS \$8224 HA_X1
X$506 \$8030 \$7832 VDD VSS \$8101 XNOR2_X1
X$507 \$8213 VSS VDD \$8214 INV_X1
X$509 \$8118 \$8214 \$8120 VSS \$8099 VDD AOI21_X1
X$510 VSS \$7747 \$8030 \$8218 \$8216 \$8119 VDD FA_X1
X$511 \$7835 VSS VDD \$8216 INV_X1
X$513 \$8120 VSS VDD \$8119 INV_X1
X$518 \$8222 VSS VDD \$8328 INV_X1
X$519 \$8224 \$8222 VDD VSS \$8121 XNOR2_X1
X$522 \$7498 VSS VDD \$7839 INV_X1
X$523 VSS \$7633 \$8223 \$8033 \$7789 \$7839 VDD FA_X1
X$528 \$8223 VSS VDD \$8227 INV_X1
X$532 \$8122 VSS VDD \$8266 INV_X1
X$535 \$8033 VSS VDD \$8267 INV_X1
X$537 VSS \$8229 \$8748 \$8123 \$8230 \$8122 VDD FA_X1
X$539 VSS \$7842 \$8034 \$8122 \$7843 \$7978 VDD FA_X1
X$542 VSS \$7844 \$8336 \$8088 \$7994 \$5860 VDD FA_X1
X$545 \$7846 VSS VDD \$8000 INV_X1
X$546 \$8000 \$7848 \$8084 VDD VSS \$8129 HA_X1
X$547 \$8088 VSS VDD \$8247 INV_X1
X$553 \$8236 VSS VDD \$8125 INV_X1
X$554 \$7844 VSS VDD \$8124 INV_X1
X$557 \$5997 VSS VDD \$I74145 INV_X4
X$558 \$1762 VSS VDD \$5997 CLKBUF_X3
X$560 VSS \$8247 \$8244 \$8329 \$7223 \$8129 VDD FA_X1
X$562 VSS \$8084 \$8130 \$8273 \$7351 \$8243 VDD FA_X1
X$565 \$8011 \$8013 \$8082 VDD VSS \$8243 HA_X1
X$566 \$8241 \$7850 \$8239 VDD VSS \$8131 HA_X1
X$568 VSS \$8082 \$8083 \$8037 \$7149 \$8005 VDD FA_X1
X$577 VSS \$7996 \$8531 \$8134 \$8081 \$8133 VDD FA_X1
X$579 \$7851 VSS VDD \$8081 INV_X1
X$584 \$7968 VSS VDD \$8039 INV_X1
X$585 \$5707 VSS VDD \$I74148 INV_X4
X$590 \$7853 VSS VDD \$8135 INV_X1
X$595 \$8233 \$8136 VDD VSS \$8137 XNOR2_X1
X$597 VSS \$8228 \$8136 \$8139 \$8232 \$8138 VDD FA_X1
X$598 \$7521 VSS VDD \$8232 INV_X1
X$600 \$8139 VSS VDD \$8220 INV_X1
X$602 VSS \$7857 \$8140 \$8211 \$8039 \$7521 VDD FA_X1
X$604 \$7957 VSS VDD \$7954 INV_X1
X$605 VSS \$7365 \$8144 \$7957 \$8079 \$7858 VDD FA_X1
X$609 \$8144 VSS VDD \$8313 INV_X1
X$613 \$7859 \$7954 \$8148 VDD VSS \$8041 HA_X1
X$618 \$8148 VSS VDD \$8206 INV_X1
X$619 \$8206 \$7778 \$8149 VDD \$8291 VSS OAI21_X1
X$620 \$8041 VSS VDD \$8149 INV_X1
X$621 \$8041 \$8148 \$8150 VSS \$8277 VDD AOI21_X1
X$622 \$8042 VSS VDD \$8150 INV_X1
X$623 \$8042 \$8148 VDD VSS \$8043 XNOR2_X1
X$628 \$7910 \$7860 VSS VDD \$8073 NAND2_X1
X$630 \$7645 \$7909 \$7862 VDD VSS \$7910 HA_X1
X$631 \$7910 VSS VDD \$8064 INV_X1
X$632 \$7860 \$7862 \$7902 VSS VDD \$8044 NAND3_X1
X$634 \$7863 \$7862 VSS VDD \$8045 NAND2_X1
X$636 \$7862 VSS VDD \$8046 INV_X1
X$638 \$7863 \$7373 VSS VDD \$8047 NAND2_X1
X$639 \$7864 \$7865 \$7868 VDD \$7902 VSS OAI21_X1
X$640 \$7863 VSS VDD \$7865 INV_X1
X$641 \$7865 \$7867 \$7868 VDD \$8050 VSS OAI21_X1
X$642 \$7872 VSS VDD \$7868 INV_X1
X$643 \$7769 \$8052 \$7863 VDD VSS \$7872 HA_X1
X$651 \$7861 \$8152 \$7860 VDD VSS \$8151 HA_X1
X$653 \$8073 \$8194 \$8044 VSS VDD \$8188 NAND3_X1
X$655 \$8188 \$8153 \$7376 VSS \$8070 VDD AOI21_X1
X$656 \$8381 \$8046 \$8047 VSS VDD \$8153 NOR3_X1
X$657 \$7868 \$8046 \$8064 VDD \$8154 VSS OAI21_X1
X$659 \$8050 \$8046 VDD VSS \$8473 XNOR2_X1
X$661 \$7770 \$7863 VDD VSS \$8055 XNOR2_X1
X$678 \$10959 \$11635 VSS VDD \$11759 NAND2_X1
X$680 \$11759 VSS VDD \$11722 INV_X1
X$683 \$11192 VSS VDD \$I74136 INV_X2
X$686 \$10615 \$11635 VSS VDD \$11884 NAND2_X1
X$689 \$11884 VSS VDD \$11891 INV_X1
X$690 \$11924 \$11891 \$11883 VDD VSS \$11976 HA_X1
X$691 \$10339 VSS VDD \$11192 CLKBUF_X3
X$694 \$9660 \$11635 \$11514 VDD VSS \$11895 HA_X1
X$695 \$11895 VSS VDD \$11762 INV_X1
X$697 \$11514 VSS VDD \$11901 INV_X1
X$698 \$11899 \$11639 \$11903 VDD \$11761 VSS OAI21_X1
X$700 \$11763 VSS VDD \$11903 INV_X1
X$702 \$11643 \$11901 \$11762 VDD \$11763 VSS OAI21_X1
X$705 \$11642 \$11887 \$11643 VDD \$11927 VSS OAI21_X1
X$709 \$11419 \$11297 \$11764 VSS \$11887 VDD AOI21_X1
X$710 \$11764 \$11647 VDD VSS \$12196 XNOR2_X1
X$712 \$11297 VSS VDD \$11647 INV_X1
X$713 \$11589 \$11859 \$11844 VSS \$11639 VDD AOI21_X1
X$714 \$11647 \$11421 \$11851 VSS VDD \$11859 NOR3_X1
X$721 \$11765 \$11649 VDD VSS \$12197 XNOR2_X1
X$723 \$11649 \$11766 VSS VDD \$11851 NAND2_X1
X$727 \$11650 \$11766 \$11767 VSS \$11765 VDD AOI21_X1
X$728 \$11650 VSS VDD \$11423 INV_X1
X$730 \$11650 \$11766 \$11844 VSS \$11674 VDD AOI21_X1
X$734 \$10221 \$12212 \$11766 VDD VSS \$11650 HA_X1
X$739 \$11450 \$11770 VDD VSS \$11835 AND2_X1
X$740 \$11234 \$11835 \$11772 VDD VSS \$11653 HA_X1
X$741 \$11770 \$11530 \$11665 \$11528 VSS VDD \$11823 NOR4_X1
X$745 \$11653 VSS VDD \$11773 INV_X1
X$747 \$11665 \$11450 VSS VDD \$11784 NAND2_X1
X$750 \$11654 VSS VDD \$11785 INV_X1
X$751 VSS \$11785 \$11795 \$11532 \$11784 \$11655 VDD FA_X1
X$768 \$8705 VSS VDD \$11531 CLKBUF_X3
X$769 \$11772 \$11775 VSS VDD \$11774 NAND2_X1
X$772 \$11792 \$11775 VSS VDD \$11776 NAND2_X1
X$773 \$11775 \$11786 \$11654 VSS VDD \$11937 NAND3_X1
X$775 \$11784 VSS VDD \$11782 INV_X1
X$777 \$11656 \$11782 \$11786 VDD VSS \$11792 HA_X1
X$796 \$11802 \$8564 VSS VDD \$11910 NAND2_X1
X$797 \$11996 \$11965 \$11964 VDD VSS \$11997 HA_X1
X$798 \$11910 VSS VDD \$11965 INV_X1
X$801 VSS \$11749 \$12180 \$11975 \$11969 \$11842 VDD FA_X1
X$802 VSS \$11750 \$I72684 \$11913 \$11975 \$10360 VDD DFFR_X1
X$803 VSS \$11750 \$I72791 \$11915 \$11913 \$10360 VDD DFFR_X1
X$804 \$11915 \$11916 \$11978 VDD VSS \$12002 HA_X1
X$806 VSS \$11282 \$I72883 \$11283 \$12756 \$10360 VDD DFFR_X1
X$810 \$11746 \$8319 VSS VDD \$11995 NAND2_X1
X$811 \$11995 VSS VDD \$11996 INV_X1
X$815 \$11842 \$11969 \$12097 VDD VSS \$12098 HA_X1
X$818 \$11750 VSS VDD \$I55791 INV_X1
X$819 \$11376 VSS VDD \$11750 CLKBUF_X3
X$823 \$12000 \$12001 VDD VSS \$11752 XNOR2_X1
X$824 \$12001 \$11978 \$11485 VSS VDD \$12156 NAND3_X1
X$828 \$11983 VSS VDD \$11916 INV_X1
X$832 \$12079 \$12077 \$11918 VSS \$12076 VDD AOI21_X1
X$834 \$11918 \$12077 VDD VSS \$11983 XNOR2_X1
X$839 \$12081 \$12100 \$12077 VDD VSS \$12079 HA_X1
X$841 VSS \$11919 \$12081 \$11629 \$12140 \$11921 VDD FA_X1
X$842 \$11920 \$11981 \$11631 VDD VSS \$11919 HA_X1
X$844 VSS \$12131 \$11921 \$11981 \$11982 \$11976 VDD FA_X1
X$850 \$12084 \$12068 \$11920 VDD VSS \$12135 HA_X1
X$851 \$12003 VSS VDD \$12084 INV_X1
X$853 \$11295 \$10960 VSS VDD \$12003 NAND2_X1
X$857 \$11292 \$11417 VSS VDD \$12004 NAND2_X1
X$858 \$12004 VSS VDD \$12127 INV_X1
X$861 \$10959 \$12006 VSS VDD \$12067 NAND2_X1
X$863 \$12067 VSS VDD \$11924 INV_X1
X$870 \$10746 \$12006 \$12007 VDD VSS \$12011 HA_X1
X$871 \$12007 VSS VDD \$12013 INV_X1
X$873 \$12011 \$12007 \$11973 VSS \$12008 VDD AOI21_X1
X$874 \$12011 VSS VDD \$12040 INV_X1
X$875 \$11901 \$11968 \$11762 VDD \$11973 VSS OAI21_X1
X$881 \$11762 \$12013 \$12040 VDD \$12194 VSS OAI21_X1
X$885 VSS \$1633 \$I72886 \$1433 \$1364 \$1003 VDD DFFR_X1
X$891 \$1224 VSS VDD \$1371 INV_X1
X$892 \$1371 \$1369 \$1326 VDD \$1226 VSS OAI21_X1
X$894 \$1327 VSS VDD \$1326 INV_X1
X$898 \$1381 \$1378 VSS VDD \$1328 NAND2_X1
X$903 VSS \$1005 \$1329 \$1330 \$1389 \$1228 VDD FA_X1
X$905 VSS \$1395 \$1389 \$1281 \$1553 \$1229 VDD FA_X1
X$906 \$1411 \$1230 VSS VDD \$1395 NOR2_X1
X$919 VSS \$1826 \$I72376 \$1542 \$1432 \$1003 VDD DFFR_X1
X$924 VSS \$1633 \$I72330 \$1700 \$1433 \$1003 VDD DFFR_X1
X$929 \$1436 \$1548 \$1435 VSS \$1369 VDD AOI21_X1
X$930 \$1436 \$1224 VSS VDD \$1325 NAND2_X1
X$931 \$1325 \$1326 \$1487 VSS VDD \$1709 NAND3_X1
X$932 \$1491 \$1490 \$1548 VDD VSS \$1436 HA_X1
X$933 \$1492 VSS VDD \$1491 INV_X1
X$936 \$1272 VSS VDD \$1490 INV_X1
X$942 VSS \$1499 \$1492 \$1500 \$1273 \$1498 VDD FA_X1
X$944 \$1503 VSS VDD \$1499 INV_X1
X$945 \$1329 VSS VDD \$1498 INV_X1
X$948 VSS \$1608 \$1503 \$1504 \$1402 \$1330 VDD FA_X1
X$949 \$109 \$215 VSS VDD \$1737 NOR2_X1
X$953 \$1441 VSS VDD \$1231 INV_X1
X$955 \$1232 VSS VDD \$1402 INV_X1
X$958 \$1442 VSS VDD \$1008 INV_X1
X$961 \$376 VSS VDD \$1230 INV_X1
X$964 \$1445 VSS VDD \$43 BUF_X2
X$970 VSS \$1012 \$I72482 \$1447 \$1528 \$1445 VDD DFFR_X1
X$971 \$85 VSS VDD \$1012 CLKBUF_X3
X$972 \$1012 VSS VDD \$I56413 INV_X1
X$976 VSS \$1335 \$934 \$1013 \$1334 \$1420 VDD FA_X1
X$977 VSS \$1421 \$1420 \$1102 \$1422 \$1423 VDD FA_X1
X$978 \$1336 VSS VDD \$1422 INV_X1
X$983 \$1446 \$1518 VDD VSS \$497 XNOR2_X1
X$984 \$1532 VSS VDD \$1554 INV_X1
X$986 VSS \$1335 \$1532 \$1449 \$1334 \$1448 VDD FA_X1
X$987 \$1535 VSS VDD \$1448 INV_X1
X$990 \$1534 VSS VDD \$1421 INV_X1
X$991 VSS \$1336 \$1535 \$1450 \$1540 \$1534 VDD FA_X1
X$993 \$1106 \$467 VSS VDD \$1336 NAND2_X1
X$994 VSS \$1339 \$1080 \$1426 \$1428 \$1320 VDD FA_X1
X$998 \$943 \$1341 \$1239 VDD \$1238 VSS OAI21_X1
X$999 \$1342 VSS VDD \$1341 INV_X1
X$1005 \$1426 VSS VDD \$1625 INV_X1
X$1007 \$1533 VSS VDD \$1339 INV_X1
X$1008 \$831 \$1315 VSS VDD \$1533 NAND2_X1
X$1014 VSS \$1017 \$I72287 \$1529 \$1525 \$175 VDD DFFR_X1
X$1015 \$1659 \$1529 VSS VDD \$1425 NOR2_X1
X$1017 \$1342 \$943 VDD VSS \$1525 XNOR2_X1
X$1021 \$1452 \$1453 VSS VDD \$1343 NOR2_X1
X$1025 \$1453 \$945 \$1454 VDD \$1571 VSS OAI21_X1
X$1027 \$945 \$1345 VDD VSS \$1304 XNOR2_X1
X$1033 \$1345 \$1455 VSS VDD \$1453 NAND2_X1
X$1034 \$1519 VSS VDD \$1454 INV_X1
X$1038 \$385 \$394 \$1300 VDD VSS \$1298 AND3_X1
X$1040 \$1242 VSS VDD \$1347 INV_X1
X$1041 \$1290 \$1298 \$1345 VDD VSS \$1350 HA_X1
X$1044 VSS \$1023 \$I72662 \$1290 \$1288 \$175 VDD DFFR_X1
X$1046 \$1348 \$1456 \$1574 VDD \$1519 VSS OAI21_X1
X$1048 \$1345 \$1114 VSS VDD \$1516 NAND2_X1
X$1049 \$1347 \$1513 \$1348 VDD \$1770 VSS OAI21_X1
X$1050 \$1345 VSS VDD \$1513 INV_X1
X$1051 \$1513 \$1458 \$1348 VDD \$1764 VSS OAI21_X1
X$1052 \$1350 VSS VDD \$1348 INV_X1
X$1053 \$1242 \$1114 \$1045 VSS \$1458 VDD AOI21_X1
X$1055 \$1351 \$1675 VSS VDD \$1288 XOR2_X1
X$1057 \$1243 \$1279 \$1353 VDD \$1351 VSS OAI21_X1
X$1058 \$1353 \$1246 VSS VDD \$1352 NAND2_X1
X$1059 \$1042 \$1243 \$1353 VDD \$1354 VSS OAI21_X1
X$1061 \$1245 VSS VDD \$1243 INV_X1
X$1063 \$1385 VSS VDD \$1353 INV_X1
X$1070 \$1459 \$1354 VSS VDD \$1460 NAND2_X1
X$1071 \$1459 \$1245 \$763 \$1024 VSS VDD \$1461 NAND4_X1
X$1073 \$1386 \$1489 \$1245 VDD VSS \$1385 HA_X1
X$1075 \$1496 VSS VDD \$1386 INV_X1
X$1077 VSS \$1356 \$1496 \$1384 \$1598 \$1462 VDD FA_X1
X$1079 \$1384 VSS VDD \$1248 INV_X1
X$1080 \$1249 VSS VDD \$1356 INV_X1
X$1081 VSS \$1263 \$1249 \$1265 \$1367 \$1250 VDD FA_X1
X$1086 \$1486 VSS VDD \$1462 INV_X1
X$1087 VSS \$1676 \$1486 \$1250 \$1485 \$1464 VDD FA_X1
X$1088 VSS \$1465 \$1485 \$1374 \$1483 \$1484 VDD FA_X1
X$1090 \$1374 \$1376 \$1251 VDD VSS \$1263 HA_X1
X$1091 \$1466 VSS VDD \$1484 INV_X1
X$1092 \$1591 VSS VDD \$1376 INV_X1
X$1093 \$1481 VSS VDD \$1483 INV_X1
X$1094 \$1357 \$1358 VSS VDD \$1366 NAND2_X1
X$1096 VSS \$1366 \$1252 \$1253 \$1373 \$1468 VDD FA_X1
X$1097 \$1359 VSS VDD \$1254 INV_X1
X$1101 \$1358 \$1467 VSS VDD \$1481 NAND2_X1
X$1104 \$1467 \$1475 VSS VDD \$1373 NAND2_X1
X$1107 \$1589 VSS VDD \$1360 INV_X1
X$1110 \$1357 \$1475 VSS VDD \$1255 NAND2_X1
X$1111 \$1476 \$1358 VSS VDD \$1120 NAND2_X1
X$1115 \$1469 VSS VDD \$1256 INV_X1
X$1120 \$1475 \$1476 \$1473 VDD VSS \$949 AND3_X1
X$1122 \$1470 VSS VDD \$1257 INV_X1
X$1131 \$1690 \$1471 \$1473 VDD VSS \$1362 HA_X1
X$1153 VSS \$12345 \$I72885 \$12999 \$13186 \$5607 VDD DFFR_X1
X$1160 \$11316 VSS VDD \$12724 CLKBUF_X3
X$1172 VSS \$12724 \$I72517 \$13244 \$13153 \$5607 VDD DFFR_X1
X$1173 VSS \$12724 \$I72827 \$8254 \$13167 \$5607 VDD DFFR_X1
X$1176 \$13245 \$13168 VDD VSS \$13169 XNOR2_X1
X$1177 \$13169 VSS VDD \$13196 INV_X1
X$1178 \$13193 \$13196 VDD VSS \$13249 XNOR2_X1
X$1181 VSS \$13080 \$13222 \$13199 \$13170 \$13161 VDD FA_X1
X$1183 \$13199 VSS VDD \$13201 INV_X1
X$1185 \$13202 \$13201 \$13171 VDD VSS \$13172 HA_X1
X$1186 \$13172 \$13171 \$13131 VSS \$13203 VDD AOI21_X1
X$1192 \$13291 VSS VDD \$13293 INV_X1
X$1196 \$13222 VSS VDD \$13294 INV_X1
X$1198 \$13294 \$13293 \$13295 VDD VSS \$13297 HA_X1
X$1199 \$13297 VSS VDD \$13252 INV_X1
X$1201 \$13295 VSS VDD \$13223 INV_X1
X$1202 \$13249 \$13261 VDD VSS \$13314 XNOR2_X1
X$1203 \$13223 \$13203 \$13252 VDD \$13261 VSS OAI21_X1
X$1205 \$13203 \$13223 VDD VSS \$13225 XNOR2_X1
X$1207 \$13225 VSS VDD \$13302 INV_X1
X$1209 \$13244 \$13302 \$13303 VDD VSS \$13262 HA_X1
X$1210 \$13173 VSS VDD \$13208 INV_X1
X$1211 \$13131 \$13171 VDD VSS \$13173 XNOR2_X1
X$1212 \$13113 \$13208 \$13227 VDD VSS \$13174 HA_X1
X$1215 \$13303 VSS VDD \$13226 INV_X1
X$1217 \$13262 VSS VDD \$13263 INV_X1
X$1218 \$13226 \$13306 \$13263 VDD \$13245 VSS OAI21_X1
X$1220 \$5607 VSS VDD \$10360 BUF_X2
X$1221 \$13174 \$13227 \$13255 VSS \$13306 VDD AOI21_X1
X$1222 \$13174 VSS VDD \$13211 INV_X1
X$1225 \$13227 VSS VDD \$13212 INV_X1
X$1226 \$13212 \$13216 \$13211 VDD \$13175 VSS OAI21_X1
X$1232 \$11376 VSS VDD \$13133 CLKBUF_X3
X$1237 \$13175 \$13226 VDD VSS \$13318 XNOR2_X1
X$1239 \$13083 VSS VDD \$13255 INV_X1
X$1240 \$13083 \$13227 VDD VSS \$13315 XNOR2_X1
X$1243 VSS \$13228 \$I72525 \$13319 \$13315 \$10360 VDD DFFR_X1
X$1245 VSS \$13133 \$I72565 \$13323 \$13319 \$10360 VDD DFFR_X1
X$1246 \$13133 VSS VDD \$I74124 INV_X2
X$1248 \$13323 \$13326 \$13087 VDD VSS \$13176 HA_X1
X$1249 \$13176 \$13087 \$13135 VSS \$13231 VDD AOI21_X1
X$1253 \$13176 VSS VDD \$13136 INV_X1
X$1257 \$13327 VSS VDD \$13326 INV_X1
X$1261 \$13248 \$13270 VDD VSS \$13327 XNOR2_X1
X$1262 \$13214 \$13137 VSS VDD \$13248 NAND2_X1
X$1266 \$13177 VSS VDD \$13138 INV_X1
X$1268 \$13139 VSS VDD \$13214 INV_X1
X$1271 VSS \$13140 \$13332 \$13177 \$13243 \$13141 VDD FA_X1
X$1274 \$13333 \$13270 \$13248 VSS \$13271 VDD AOI21_X1
X$1276 \$13332 VSS VDD \$13246 INV_X1
X$1277 \$13246 \$13329 \$13270 VDD VSS \$13333 HA_X1
X$1279 VSS \$13162 \$13178 \$13093 \$12988 \$13334 VDD FA_X1
X$1280 \$13178 VSS VDD \$13141 INV_X1
X$1284 \$11292 \$12290 VSS VDD \$13142 NAND2_X1
X$1288 \$13321 VSS VDD \$13156 INV_X1
X$1291 \$10576 \$12870 VSS VDD \$13234 NAND2_X1
X$1296 VSS \$13160 \$13445 \$13243 \$13312 \$13352 VDD FA_X1
X$1299 \$11383 \$12290 VSS VDD \$13233 NAND2_X1
X$1300 \$13233 VSS VDD \$13380 INV_X1
X$1303 VSS \$13240 \$13440 \$13313 \$13234 \$13276 VDD FA_X1
X$1304 \$11383 \$12870 VSS VDD \$13277 NAND2_X1
X$1305 VSS \$13145 \$13279 \$13312 \$13238 \$13313 VDD FA_X1
X$1307 \$12290 \$12607 VSS VDD \$13436 OR2_X1
X$1311 \$13285 VSS VDD \$13238 INV_X1
X$1314 VSS \$13236 \$13462 \$13285 \$13286 \$13149 VDD FA_X1
X$1315 \$10117 \$12006 VSS VDD \$13184 NAND2_X1
X$1317 \$13184 VSS VDD \$13236 INV_X1
X$1318 \$12607 \$12006 VSS VDD \$13281 NOR2_X1
X$1369 VSS \$1916 \$I72863 \$1918 \$1989 \$1914 VDD DFFR_X1
X$1370 VSS \$1633 \$I72864 \$1915 \$1873 \$1914 VDD DFFR_X1
X$1375 \$1830 \$1922 VSS VDD \$1435 NAND2_X1
X$1376 \$1923 \$1921 \$1830 VDD \$1883 VSS OAI21_X1
X$1380 \$2010 VSS VDD \$1890 INV_X1
X$1384 VSS \$2019 \$1892 \$2012 \$1837 \$1893 VDD FA_X1
X$1385 \$1411 \$1094 VSS VDD \$1893 NOR2_X1
X$1386 \$1832 \$1230 VSS VDD \$2019 NOR2_X1
X$1388 \$1833 \$1230 VSS VDD \$1835 NOR2_X1
X$1389 \$1833 \$487 VSS VDD \$1837 NOR2_X1
X$1391 \$1649 \$487 VSS VDD \$2035 NOR2_X1
X$1396 VSS \$1826 \$I72878 \$1866 \$1862 \$1003 VDD DFFR_X1
X$1397 \$1545 VSS VDD \$1826 CLKBUF_X3
X$1407 VSS \$1826 \$I72377 \$2117 \$1866 \$1003 VDD DFFR_X1
X$1409 VSS \$1633 \$I72895 \$1913 \$1980 \$1003 VDD DFFR_X1
X$1413 VSS \$1633 \$I72276 \$2163 \$1913 \$1003 VDD DFFR_X1
X$1416 VSS \$1916 \$I72343 \$1989 \$1915 \$1914 VDD DFFR_X1
X$1417 VSS \$1916 \$I72319 \$1919 \$1918 \$1914 VDD DFFR_X1
X$1418 VSS \$1916 \$I72520 \$2228 \$1919 \$1914 VDD DFFR_X1
X$1422 \$1994 \$1548 VSS VDD \$1920 XOR2_X1
X$1423 \$1921 \$2173 \$1830 VDD \$1994 VSS OAI21_X1
X$1424 \$1713 \$2120 VSS VDD \$1922 NAND2_X1
X$1425 \$1713 VSS VDD \$1921 INV_X1
X$1427 \$1927 VSS VDD \$1923 INV_X1
X$1428 \$1927 \$1925 \$2005 VSS \$2173 VDD AOI21_X1
X$1429 \$1711 VSS VDD \$2005 INV_X1
X$1432 \$2007 \$2179 \$1925 VDD VSS \$1927 HA_X1
X$1435 \$1887 VSS VDD \$2179 INV_X1
X$1438 \$2012 \$2204 \$2124 VDD VSS \$2010 HA_X1
X$1440 \$1644 \$565 \$2125 VDD VSS \$2195 HA_X1
X$1443 \$1411 \$215 VSS VDD \$2326 NOR2_X1
X$1444 \$1093 \$1094 VSS VDD \$2127 NOR2_X1
X$1445 \$1933 \$1230 VSS VDD \$2199 NOR2_X1
X$1446 \$1832 \$215 VSS VDD \$2235 NOR2_X1
X$1449 \$1832 \$1094 VSS VDD \$2128 NOR2_X1
X$1450 \$1933 \$1098 VSS VDD \$2204 NOR2_X1
X$1453 VSS \$1934 \$1833 \$1062 \$2046 \$1445 VDD DFFR_X1
X$1456 \$1933 \$19 VSS VDD \$825 NAND2_X1
X$1462 \$1840 \$2054 \$2239 VSS VDD \$487 NAND3_X1
X$1465 \$27 VSS VDD \$1840 INV_X1
X$1468 \$590 \$2130 VSS VDD \$755 NAND2_X1
X$1470 VSS \$1934 \$I72665 \$2509 \$628 \$1445 VDD DFFR_X1
X$1471 VSS \$1934 \$1832 \$628 \$2076 \$1445 VDD DFFR_X1
X$1474 \$828 \$2130 VSS VDD \$1444 NAND2_X1
X$1477 \$85 VSS VDD \$1934 CLKBUF_X3
X$1479 VSS \$1012 \$I72634 \$2076 \$1904 \$1445 VDD DFFR_X1
X$1484 \$2095 \$467 VSS VDD \$1534 NAND2_X1
X$1488 \$2093 VSS VDD \$1786 INV_X1
X$1489 VSS \$1017 \$I72758 \$1904 \$2095 \$175 VDD DFFR_X1
X$1494 VSS \$2082 \$2136 \$2137 \$2079 \$2215 VDD FA_X1
X$1497 \$2087 VSS VDD \$2082 INV_X1
X$1501 \$1940 VSS VDD \$1939 INV_X1
X$1503 \$501 \$938 VSS VDD \$2138 NAND2_X1
X$1504 VSS \$2094 \$2087 \$2246 \$2091 \$2142 VDD FA_X1
X$1506 \$817 \$1558 VSS VDD \$1944 NAND2_X1
X$1507 \$1944 VSS VDD \$2183 INV_X1
X$1508 \$1652 \$2107 VSS VDD \$2389 NOR2_X1
X$1509 \$2105 VSS VDD \$2392 INV_X1
X$1511 \$831 \$1655 VSS VDD \$2105 NAND2_X1
X$1513 \$2113 VSS VDD \$1783 INV_X1
X$1514 VSS \$1017 \$2113 \$501 \$2109 \$175 VDD DFFR_X1
X$1516 \$2116 \$1558 \$1563 VDD VSS \$1662 HA_X1
X$1521 VSS \$2472 \$I72966 \$1825 \$1524 \$175 VDD DFFR_X1
X$1525 \$1666 VSS VDD \$2107 INV_X1
X$1526 \$2097 \$2107 \$1570 VDD VSS \$1668 HA_X1
X$1531 \$1668 VSS VDD \$1793 INV_X1
X$1532 \$1947 \$1570 VSS VDD \$1886 NAND2_X1
X$1534 \$1947 VSS VDD \$1574 INV_X1
X$1539 VSS \$652 \$I72707 \$2098 \$1882 \$175 VDD DFFR_X1
X$1542 \$1853 VSS VDD \$2090 INV_X1
X$1543 \$2090 \$1674 \$1952 VDD \$1880 VSS OAI21_X1
X$1544 \$1876 \$1853 VSS VDD \$1951 NAND2_X1
X$1545 \$1951 \$1460 \$1952 \$1461 VSS VDD \$1950 NAND4_X1
X$1547 \$2059 \$1875 \$1675 VDD VSS \$1876 HA_X1
X$1549 \$652 VSS VDD \$I74141 INV_X2
X$1550 \$2044 VSS VDD \$2059 INV_X1
X$1555 \$1854 VSS VDD \$2045 INV_X1
X$1556 \$1855 \$1580 VSS VDD \$1854 NAND2_X1
X$1558 \$1855 \$1586 VSS VDD \$1856 NAND2_X1
X$1561 VSS \$2013 \$2044 \$1872 \$2285 \$1869 VDD FA_X1
X$1562 \$2040 VSS VDD \$1869 INV_X1
X$1563 \$1963 VSS VDD \$2013 INV_X1
X$1565 VSS \$1997 \$1963 \$1738 \$1964 \$1857 VDD FA_X1
X$1567 \$1581 \$1357 VSS VDD \$1968 NAND2_X1
X$1568 \$1968 VSS VDD \$1868 INV_X1
X$1569 \$1583 \$1467 VSS VDD \$1969 NAND2_X1
X$1570 \$1969 VSS VDD \$1979 INV_X1
X$1582 \$2098 \$2349 \$1455 VDD VSS \$1947 HA_X1
X$1588 VSS \$652 \$I72440 \$2097 \$2099 \$175 VDD DFFR_X1
X$1589 \$1950 \$2146 VSS VDD \$2099 XOR2_X1
X$1591 \$2071 VSS VDD \$1952 INV_X1
X$1593 \$2147 \$2171 \$1853 VDD VSS \$2071 HA_X1
X$1594 \$553 VSS VDD \$652 CLKBUF_X3
X$1595 \$1680 \$1467 VSS VDD \$2148 NAND2_X1
X$1597 \$1855 \$1357 VSS VDD \$1958 NAND2_X1
X$1598 \$1958 VSS VDD \$2167 INV_X1
X$1600 \$2149 VSS VDD \$2150 INV_X1
X$1601 \$1959 \$1476 VSS VDD \$2149 NAND2_X1
X$1604 \$2164 VSS VDD \$2042 INV_X1
X$1605 \$1959 \$1586 VSS VDD \$2164 NAND2_X1
X$1606 \$2042 \$2045 \$1676 VDD VSS \$2160 HA_X1
X$1608 VSS \$2278 \$2040 \$1857 \$2004 \$2160 VDD FA_X1
X$1609 \$1680 \$1476 VSS VDD \$1967 NAND2_X1
X$1610 \$1967 VSS VDD \$2155 INV_X1
X$1611 VSS \$1868 \$2004 \$2154 \$1979 \$2155 VDD FA_X1
X$1626 VSS \$3232 \$I72861 \$3132 \$3131 \$1003 VDD DFFR_X1
X$1628 VSS \$3232 \$I72887 \$3295 \$3184 \$1003 VDD DFFR_X1
X$1643 VSS \$3231 \$I72858 \$3024 \$3291 \$1003 VDD DFFR_X1
X$1650 VSS \$3232 \$I72310 \$3466 \$3295 \$1003 VDD DFFR_X1
X$1652 VSS \$3668 \$I72293 \$3468 \$3424 \$1003 VDD DFFR_X1
X$1653 \$1762 VSS VDD \$1545 CLKBUF_X3
X$1658 VSS \$2981 \$I72545 \$3236 \$3136 \$2883 VDD DFFR_X1
X$1662 VSS \$2981 \$I72546 \$3238 \$3313 \$2883 VDD DFFR_X1
X$1667 VSS \$2982 \$I72663 \$3490 \$3141 \$1445 VDD DFFR_X1
X$1670 \$2883 VSS VDD \$1445 BUF_X1
X$1671 \$2982 VSS VDD \$I74121 INV_X2
X$1672 \$85 VSS VDD \$2982 CLKBUF_X3
X$1675 VSS \$2982 \$3069 \$I65925 \$3325 \$1445 VDD DFFR_X1
X$1677 VSS \$2982 \$I72487 \$3429 \$19 \$1445 VDD DFFR_X1
X$1684 \$3243 \$3241 \$2407 VDD VSS \$2588 HA_X1
X$1685 \$2588 \$2641 VSS VDD \$3223 NAND2_X1
X$1688 \$3144 \$3223 \$3430 \$3225 VSS VDD \$3339 NAND4_X1
X$1690 \$3339 \$3146 VDD VSS \$3148 XNOR2_X1
X$1692 \$3147 \$3244 VSS VDD \$1755 NAND2_X1
X$1696 VSS \$19 \$27 \$3147 \$3244 VDD AOI21_X4
X$1697 \$3148 VSS VDD \$3245 INV_X1
X$1698 \$3229 \$3347 VSS \$3246 VDD NAND2_X4
X$1700 \$3229 \$3347 \$3148 VSS \$3147 VDD NAND3_X4
X$1703 \$3247 \$2990 VSS \$3347 VDD NAND2_X4
X$1704 \$3248 \$2991 \$3149 VSS \$3229 VDD NAND3_X4
X$1706 \$3249 \$600 VSS VDD \$3149 NAND2_X2
X$1707 \$600 VSS VDD \$3356 INV_X1
X$1712 \$3151 \$3226 \$3250 VDD VSS \$3252 HA_X1
X$1713 \$3152 \$2992 \$3433 VDD VSS \$3255 HA_X1
X$1716 VSS \$2999 \$3153 \$3386 \$1940 \$3257 VDD FA_X1
X$1717 \$3256 VSS VDD \$175 BUF_X2
X$1720 \$3247 VSS VDD \$3248 INV_X1
X$1722 \$3357 \$3356 VSS VDD \$2991 NAND2_X2
X$1723 \$3249 VSS VDD \$3357 INV_X1
X$1726 \$740 \$3973 VSS VDD \$3249 XNOR2_X2
X$1728 \$3370 VSS VDD \$3515 INV_X1
X$1729 \$3252 \$3250 \$3514 VSS \$3251 VDD AOI21_X1
X$1730 \$3251 \$2133 VSS VDD \$3370 XOR2_X1
X$1731 \$3252 \$2133 VSS VDD \$3253 NAND2_X1
X$1733 \$3255 VSS VDD \$3520 INV_X1
X$1737 VSS \$4188 \$3257 \$608 \$4220 \$3256 VDD DFFR_X1
X$1738 VSS \$3386 \$3258 \$3260 \$3391 \$3392 VDD FA_X1
X$1740 VSS \$3155 \$3259 \$3261 \$3395 \$3000 VDD FA_X1
X$1742 \$3156 \$3218 \$3264 VDD VSS \$3265 HA_X1
X$1744 \$3157 VSS VDD \$3266 INV_X1
X$1745 \$3114 \$1315 VSS VDD \$3157 NAND2_X1
X$1747 \$3409 VSS VDD \$3419 INV_X1
X$1749 \$2518 \$1315 VSS VDD \$3269 NAND2_X1
X$1751 \$3114 \$1558 VSS VDD \$3420 NAND2_X1
X$1754 \$2518 \$1558 VSS VDD \$3398 NAND2_X1
X$1757 \$3161 \$3162 \$3272 VDD VSS \$3274 HA_X1
X$1760 \$3738 \$3208 VDD VSS \$3211 XNOR2_X1
X$1761 \$3378 \$3209 VDD VSS \$3208 XNOR2_X1
X$1764 \$3010 VSS VDD \$3373 INV_X1
X$1765 \$3348 \$3010 VDD VSS \$3378 XNOR2_X1
X$1766 \$3448 VSS VDD \$3207 INV_X1
X$1768 VSS \$3364 \$3166 \$3167 \$3366 \$3276 VDD FA_X1
X$1771 VSS \$2767 \$3010 \$3276 \$2531 \$3204 VDD FA_X1
X$1772 \$3506 VSS VDD \$3205 INV_X1
X$1775 VSS \$3278 \$3204 \$3348 \$3085 \$3168 VDD FA_X1
X$1776 \$3169 VSS VDD \$3168 INV_X1
X$1778 \$3014 \$1467 VSS VDD \$3169 NAND2_X1
X$1780 \$3259 VSS VDD \$3391 INV_X1
X$1781 \$3260 VSS VDD \$3545 INV_X1
X$1784 \$2709 VSS VDD \$3441 INV_X1